
Spectre (R) Circuit Simulator
Version 19.1.0.162.isr1 64bit -- 14 Oct 2019
Copyright (C) 1989-2019 Cadence Design Systems, Inc. All rights reserved
        worldwide. Cadence and Spectre are registered trademarks of Cadence
        Design Systems, Inc. All others are the property of their respective
        holders.

Includes RSA BSAFE(R) Cryptographic or Security Protocol Software from RSA
        Security, Inc.

User: me59   Host: dice   HostID: B4A34EA0   PID: 143118
Memory  available: 135.5128 GB  physical: 269.9321 GB
Linux   : CentOS Linux release 7.9.2009 (Core)
CPU Type: Intel(R) Xeon(R) Gold 6242R CPU @ 3.10GHz
        Socket: Processors [Frequency] (Hyperthreaded Processor)
        0:       0 [1228.3] ( 40 ),  1 [1458.8] ( 41 ),  2 [1286.1] ( 42 )
                 3 [1973.8] ( 43 ),  4 [1200.7] ( 44 ),  5 [1200.0] ( 45 )
                 6 [1523.1] ( 46 ),  7 [1200.0] ( 47 ),  8 [1389.0] ( 48 )
                 9 [1200.0] ( 49 ), 10 [1200.2] ( 50 ), 11 [1336.4] ( 51 )
                12 [1209.8] ( 52 ), 13 [1200.0] ( 53 ), 14 [1200.2] ( 54 )
                15 [1200.0] ( 55 ), 16 [3051.9] ( 56 ), 17 [1414.1] ( 57 )
                18 [2097.0] ( 58 ), 19 [1849.0] ( 59 )
        1:      20 [1297.0] ( 60 ), 21 [1267.3] ( 61 ), 22 [2618.7] ( 62 )
                23 [3799.9] ( 63 ), 24 [1385.8] ( 64 ), 25 [1499.9] ( 65 )
                26 [1400.0] ( 66 ), 27 [3796.1] ( 67 ), 28 [1200.0] ( 68 )
                29 [3097.2] ( 69 ), 30 [1200.0] ( 70 ), 31 [1220.0] ( 71 )
                32 [3100.0] ( 72 ), 33 [1200.0] ( 73 ), 34 [1200.2] ( 74 )
                35 [1396.7] ( 75 ), 36 [1200.0] ( 76 ), 37 [1200.0] ( 77 )
                38 [1267.1] ( 78 ), 39 [1210.9] ( 79 )
        
System load averages (1min, 5min, 15min) : 2.9 %, 2.8 %, 3.0 %
Hyperthreading is enabled


Simulating `/home/me59/bjt_amp_langgraph/seed_0_7f3a9c2e/trial_2/tb_ac.scs' on
        dice at 1:06:00 PM, Wed Jun 3, 2026 (process id: 143118).
Current working directory:
        /home/me59/bjt_amp_langgraph/seed_0_7f3a9c2e/trial_2
Command line:
    /home/eda/cadence/spectre191/tools.lnx86/bin/spectre -64  \
        /home/me59/bjt_amp_langgraph/seed_0_7f3a9c2e/trial_2/tb_ac.scs  \
        +escchars +log  \
        /home/me59/bjt_amp_langgraph/seed_0_7f3a9c2e/trial_2/spectre_ac.log  \
        -format psfxl -raw  \
        /home/me59/bjt_amp_langgraph/seed_0_7f3a9c2e/trial_2/ac_psf  \
        +lqtimeout 60
Reading file:  /home/me59/bjt_amp_langgraph/seed_0_7f3a9c2e/trial_2/tb_ac.scs
Reading file: 
        /home/eda/cadence/spectre191/tools.lnx86/spectre/etc/configs/spectre.cfg
Reading file: 
        /home/eda/edk_cadence/sky130_release_0.1.0/models/sky130.lib.spice
Reading file: 
        /home/eda/edk_cadence/sky130_release_0.1.0/cells/nfet_01v8/sky130_fd_pr__nfet_01v8__tt.corner.spice
Reading file: 
        /home/eda/edk_cadence/sky130_release_0.1.0/cells/nfet_01v8/sky130_fd_pr__nfet_01v8__tt.pm3.spice
Reading file: 
        /home/eda/edk_cadence/sky130_release_0.1.0/cells/nfet_01v8_lvt/sky130_fd_pr__nfet_01v8_lvt__tt.corner.spice
Reading file: 
        /home/eda/edk_cadence/sky130_release_0.1.0/cells/nfet_01v8_lvt/sky130_fd_pr__nfet_01v8_lvt__tt.pm3.spice
Reading file: 
        /home/eda/edk_cadence/sky130_release_0.1.0/cells/pfet_01v8/sky130_fd_pr__pfet_01v8__tt.corner.spice
Reading file: 
        /home/eda/edk_cadence/sky130_release_0.1.0/cells/pfet_01v8/sky130_fd_pr__pfet_01v8__tt.pm3.spice
Reading file: 
        /home/eda/edk_cadence/sky130_release_0.1.0/cells/nfet_03v3_nvt/sky130_fd_pr__nfet_03v3_nvt__tt.corner.spice
Reading file: 
        /home/eda/edk_cadence/sky130_release_0.1.0/cells/nfet_03v3_nvt/sky130_fd_pr__nfet_03v3_nvt.pm3.spice
Reading file: 
        /home/eda/edk_cadence/sky130_release_0.1.0/cells/nfet_05v0_nvt/sky130_fd_pr__nfet_05v0_nvt__tt.corner.spice
Reading file: 
        /home/eda/edk_cadence/sky130_release_0.1.0/cells/nfet_05v0_nvt/sky130_fd_pr__nfet_05v0_nvt.pm3.spice
Reading file: 
        /home/eda/edk_cadence/sky130_release_0.1.0/cells/esd_nfet_01v8/sky130_fd_pr__esd_nfet_01v8__tt.corner.spice
Reading file: 
        /home/eda/edk_cadence/sky130_release_0.1.0/cells/esd_nfet_01v8/sky130_fd_pr__esd_nfet_01v8.pm3.spice
Reading file: 
        /home/eda/edk_cadence/sky130_release_0.1.0/cells/pfet_01v8_lvt/sky130_fd_pr__pfet_01v8_lvt__tt.corner.spice
Reading file: 
        /home/eda/edk_cadence/sky130_release_0.1.0/cells/pfet_01v8_lvt/sky130_fd_pr__pfet_01v8_lvt__tt.pm3.spice
Reading file: 
        /home/eda/edk_cadence/sky130_release_0.1.0/cells/pfet_01v8_hvt/sky130_fd_pr__pfet_01v8_hvt__tt.corner.spice
Reading file: 
        /home/eda/edk_cadence/sky130_release_0.1.0/cells/pfet_01v8_hvt/sky130_fd_pr__pfet_01v8_hvt__tt.pm3.spice
Reading file: 
        /home/eda/edk_cadence/sky130_release_0.1.0/cells/esd_pfet_g5v0d10v5/sky130_fd_pr__esd_pfet_g5v0d10v5__tt.corner.spice
Reading file: 
        /home/eda/edk_cadence/sky130_release_0.1.0/cells/esd_pfet_g5v0d10v5/sky130_fd_pr__esd_pfet_g5v0d10v5.pm3.spice
Reading file: 
        /home/eda/edk_cadence/sky130_release_0.1.0/cells/pfet_g5v0d10v5/sky130_fd_pr__pfet_g5v0d10v5__tt.corner.spice
Reading file: 
        /home/eda/edk_cadence/sky130_release_0.1.0/cells/pfet_g5v0d10v5/sky130_fd_pr__pfet_g5v0d10v5__tt.pm3.spice
Reading file: 
        /home/eda/edk_cadence/sky130_release_0.1.0/cells/pfet_g5v0d16v0/sky130_fd_pr__pfet_g5v0d16v0__tt.corner.spice
Reading file: 
        /home/eda/edk_cadence/sky130_release_0.1.0/cells/nfet_g5v0d10v5/sky130_fd_pr__nfet_g5v0d10v5__tt.corner.spice
Reading file: 
        /home/eda/edk_cadence/sky130_release_0.1.0/cells/nfet_g5v0d10v5/sky130_fd_pr__nfet_g5v0d10v5__tt.pm3.spice
Reading file: 
        /home/eda/edk_cadence/sky130_release_0.1.0/cells/nfet_g5v0d16v0/sky130_fd_pr__nfet_g5v0d16v0__tt_discrete.corner.spice
Reading file: 
        /home/eda/edk_cadence/sky130_release_0.1.0/cells/nfet_g5v0d16v0/sky130_fd_pr__nfet_g5v0d16v0__subcircuit.pm3.spice
Reading file: 
        /home/eda/edk_cadence/sky130_release_0.1.0/cells/nfet_g5v0d16v0/sky130_fd_pr__nfet_g5v0d16v0.pm3.spice
Reading file: 
        /home/eda/edk_cadence/sky130_release_0.1.0/cells/esd_nfet_g5v0d10v5/sky130_fd_pr__esd_nfet_g5v0d10v5__tt.corner.spice
Reading file: 
        /home/eda/edk_cadence/sky130_release_0.1.0/cells/esd_nfet_g5v0d10v5/sky130_fd_pr__esd_nfet_g5v0d10v5.pm3.spice
Reading file: 
        /home/eda/edk_cadence/sky130_release_0.1.0/models/corners/tt/nonfet.spice
Reading file: 
        /home/eda/edk_cadence/sky130_release_0.1.0/cells/nfet_01v8/sky130_fd_pr__nfet_01v8__mismatch.corner.spice
Reading file: 
        /home/eda/edk_cadence/sky130_release_0.1.0/cells/pfet_01v8/sky130_fd_pr__pfet_01v8__mismatch.corner.spice
Reading file: 
        /home/eda/edk_cadence/sky130_release_0.1.0/cells/nfet_01v8_lvt/sky130_fd_pr__nfet_01v8_lvt__mismatch.corner.spice
Reading file: 
        /home/eda/edk_cadence/sky130_release_0.1.0/cells/pfet_01v8_lvt/sky130_fd_pr__pfet_01v8_lvt__mismatch.corner.spice
Reading file: 
        /home/eda/edk_cadence/sky130_release_0.1.0/cells/pfet_01v8_hvt/sky130_fd_pr__pfet_01v8_hvt__mismatch.corner.spice
Reading file: 
        /home/eda/edk_cadence/sky130_release_0.1.0/cells/nfet_g5v0d10v5/sky130_fd_pr__nfet_g5v0d10v5__mismatch.corner.spice
Reading file: 
        /home/eda/edk_cadence/sky130_release_0.1.0/cells/pfet_g5v0d10v5/sky130_fd_pr__pfet_g5v0d10v5__mismatch.corner.spice
Reading file: 
        /home/eda/edk_cadence/sky130_release_0.1.0/cells/nfet_05v0_nvt/sky130_fd_pr__nfet_05v0_nvt__mismatch.corner.spice
Reading file: 
        /home/eda/edk_cadence/sky130_release_0.1.0/cells/nfet_03v3_nvt/sky130_fd_pr__nfet_03v3_nvt__mismatch.corner.spice
Reading file: 
        /home/eda/edk_cadence/sky130_release_0.1.0/models/r+c/res_typical__cap_typical.spice
Reading file: 
        /home/eda/edk_cadence/sky130_release_0.1.0/models/sky130_fd_pr__model__r+c.model.spice
Reading file: 
        /home/eda/edk_cadence/sky130_release_0.1.0/models/r+c.mrp1monte.spice
Reading file: 
        /home/eda/edk_cadence/sky130_release_0.1.0/cells/res_generic_nd/sky130_fd_pr__res_generic_nd.model.spice
Reading file: 
        /home/eda/edk_cadence/sky130_release_0.1.0/cells/res_generic_pd/sky130_fd_pr__res_generic_pd.model.spice
Reading file: 
        /home/eda/edk_cadence/sky130_release_0.1.0/models/parameters/typical.spice
Reading file: 
        /home/eda/edk_cadence/sky130_release_0.1.0/models/r+c/res_typical__cap_typical__lin.spice
Reading file: 
        /home/eda/edk_cadence/sky130_release_0.1.0/models/capacitors/sky130_fd_pr__model__cap_vpp.model.spice
Reading file: 
        /home/eda/edk_cadence/sky130_release_0.1.0/cells/cap_vpp_08p6x07p8_l1m1m2_noshield/sky130_fd_pr__cap_vpp_08p6x07p8_l1m1m2_noshield.model.spice
Reading file: 
        /home/eda/edk_cadence/sky130_release_0.1.0/cells/cap_vpp_04p4x04p6_l1m1m2_noshield/sky130_fd_pr__cap_vpp_04p4x04p6_l1m1m2_noshield.model.spice
Reading file: 
        /home/eda/edk_cadence/sky130_release_0.1.0/cells/cap_vpp_11p5x11p7_l1m1m2_noshield/sky130_fd_pr__cap_vpp_11p5x11p7_l1m1m2_noshield.model.spice
Reading file: 
        /home/eda/edk_cadence/sky130_release_0.1.0/cells/cap_vpp_01p8x01p8_m1m2_noshield/sky130_fd_pr__cap_vpp_01p8x01p8_m1m2_noshield.model.spice
Reading file: 
        /home/eda/edk_cadence/sky130_release_0.1.0/cells/cap_vpp_08p6x07p8_m1m2_shieldl1/sky130_fd_pr__cap_vpp_08p6x07p8_m1m2_shieldl1.model.spice
Reading file: 
        /home/eda/edk_cadence/sky130_release_0.1.0/cells/cap_vpp_04p4x04p6_m1m2_shieldl1/sky130_fd_pr__cap_vpp_04p4x04p6_m1m2_shieldl1.model.spice
Reading file: 
        /home/eda/edk_cadence/sky130_release_0.1.0/cells/cap_vpp_11p5x11p7_m1m2_shieldl1/sky130_fd_pr__cap_vpp_11p5x11p7_m1m2_shieldl1.model.spice
Reading file: 
        /home/eda/edk_cadence/sky130_release_0.1.0/cells/cap_vpp_08p6x07p8_l1m1m2_shieldpo_floatm3/sky130_fd_pr__cap_vpp_08p6x07p8_l1m1m2_shieldpo_floatm3.model.spice
Reading file: 
        /home/eda/edk_cadence/sky130_release_0.1.0/cells/cap_vpp_04p4x04p6_l1m1m2_shieldpo_floatm3/sky130_fd_pr__cap_vpp_04p4x04p6_l1m1m2_shieldpo_floatm3.model.spice
Reading file: 
        /home/eda/edk_cadence/sky130_release_0.1.0/cells/cap_vpp_11p5x11p7_l1m1m2_shieldpom3/sky130_fd_pr__cap_vpp_11p5x11p7_l1m1m2_shieldpom3.model.spice
Reading file: 
        /home/eda/edk_cadence/sky130_release_0.1.0/cells/cap_vpp_03p9x03p9_m1m2_shieldl1_floatm3/sky130_fd_pr__cap_vpp_03p9x03p9_m1m2_shieldl1_floatm3.model.spice
Reading file: 
        /home/eda/edk_cadence/sky130_release_0.1.0/cells/cap_vpp_04p4x04p6_l1m1m2_noshield/sky130_fd_pr__cap_vpp_04p4x04p6_l1m1m2_noshield_o1.model.spice
Reading file: 
        /home/eda/edk_cadence/sky130_release_0.1.0/cells/cap_vpp_08p6x07p8_m1m2_noshield/sky130_fd_pr__cap_vpp_08p6x07p8_m1m2_noshield.model.spice
Reading file: 
        /home/eda/edk_cadence/sky130_release_0.1.0/cells/cap_vpp_04p4x04p6_m1m2_noshield/sky130_fd_pr__cap_vpp_04p4x04p6_m1m2_noshield_o2.model.spice
Reading file: 
        /home/eda/edk_cadence/sky130_release_0.1.0/cells/cap_vpp_02p4x04p6_m1m2_noshield/sky130_fd_pr__cap_vpp_02p4x04p6_m1m2_noshield.model.spice
Reading file: 
        /home/eda/edk_cadence/sky130_release_0.1.0/cells/cap_vpp_04p4x04p6_m1m2_noshield/sky130_fd_pr__cap_vpp_04p4x04p6_m1m2_noshield.model.spice
Reading file: 
        /home/eda/edk_cadence/sky130_release_0.1.0/cells/cap_vpp_11p5x11p7_m1m2_noshield/sky130_fd_pr__cap_vpp_11p5x11p7_m1m2_noshield.model.spice
Reading file: 
        /home/eda/edk_cadence/sky130_release_0.1.0/cells/npn_05v5/sky130_fd_pr__npn_05v5__t.corner.spice
Reading file: 
        /home/eda/edk_cadence/sky130_release_0.1.0/cells/npn_05v5/sky130_fd_pr__npn_05v5_W1p00L1p00.model.spice
Reading file: 
        /home/eda/edk_cadence/sky130_release_0.1.0/cells/npn_05v5/sky130_fd_pr__npn_05v5_W1p00L2p00.model.spice
Reading file: 
        /home/eda/edk_cadence/sky130_release_0.1.0/cells/npn_11v0/sky130_fd_pr__npn_11v0_W1p00L1p00.model.spice
Reading file: 
        /home/eda/edk_cadence/sky130_release_0.1.0/cells/pnp_05v5/sky130_fd_pr__pnp_05v5_W3p40L3p40.model.spice
Reading file: 
        /home/eda/edk_cadence/sky130_release_0.1.0/models/corners/tt/specialized_cells.spice
Reading file: 
        /home/eda/edk_cadence/sky130_release_0.1.0/cells/special_nfet_latch/sky130_fd_pr__special_nfet_latch__mismatch.corner.spice
Reading file: 
        /home/eda/edk_cadence/sky130_release_0.1.0/cells/special_nfet_pass/sky130_fd_pr__special_nfet_pass__mismatch.corner.spice
Reading file: 
        /home/eda/edk_cadence/sky130_release_0.1.0/cells/special_nfet_pass_flash/sky130_fd_pr__special_nfet_pass_flash__mismatch.corner.spice
Reading file: 
        /home/eda/edk_cadence/sky130_release_0.1.0/cells/special_pfet_pass/sky130_fd_pr__special_pfet_pass__mismatch.corner.spice
Reading file: 
        /home/eda/edk_cadence/sky130_release_0.1.0/cells/special_nfet_pass_lvt/sky130_fd_pr__special_nfet_pass_lvt__tt.corner.spice
Reading file: 
        /home/eda/edk_cadence/sky130_release_0.1.0/cells/special_nfet_pass_lvt/sky130_fd_pr__special_nfet_pass_lvt.pm3.spice
Reading file:  /home/eda/edk_cadence/sky130_release_0.1.0/models/all.spice
Reading file: 
        /home/eda/edk_cadence/sky130_release_0.1.0/models/parameters/lod.spice
Reading file: 
        /home/eda/edk_cadence/sky130_release_0.1.0/models/parasitics/sky130_fd_pr__model__parasitic__diode_ps2nw.model.spice
Reading file: 
        /home/eda/edk_cadence/sky130_release_0.1.0/cells/diode_pw2nd_05v5/sky130_fd_pr__diode_pw2nd_05v5.model.spice
Reading file: 
        /home/eda/edk_cadence/sky130_release_0.1.0/cells/diode_pd2nw_05v5/sky130_fd_pr__diode_pd2nw_05v5.model.spice
Reading file: 
        /home/eda/edk_cadence/sky130_release_0.1.0/cells/diode_pd2nw_05v5_hvt/sky130_fd_pr__diode_pd2nw_05v5_hvt.model.spice
Reading file: 
        /home/eda/edk_cadence/sky130_release_0.1.0/cells/diode_pw2nd_11v0/sky130_fd_pr__diode_pw2nd_11v0.model.spice
Reading file: 
        /home/eda/edk_cadence/sky130_release_0.1.0/cells/diode_pd2nw_11v0/sky130_fd_pr__diode_pd2nw_11v0.model.spice
Reading file: 
        /home/eda/edk_cadence/sky130_release_0.1.0/cells/diode_pw2nd_05v5_nvt/sky130_fd_pr__diode_pw2nd_05v5_nvt.model.spice
Reading file: 
        /home/eda/edk_cadence/sky130_release_0.1.0/cells/diode_pw2nd_05v5_lvt/sky130_fd_pr__diode_pw2nd_05v5_lvt.model.spice
Reading file: 
        /home/eda/edk_cadence/sky130_release_0.1.0/cells/diode_pd2nw_05v5_lvt/sky130_fd_pr__diode_pd2nw_05v5_lvt.model.spice
Reading file: 
        /home/eda/edk_cadence/sky130_release_0.1.0/models/parasitics/sky130_fd_pr__model__parasitic__diode_pw2dn.model.spice
Reading file: 
        /home/eda/edk_cadence/sky130_release_0.1.0/models/parasitics/sky130_fd_pr__model__parasitic__diode_ps2dn.model.spice
Reading file: 
        /home/eda/edk_cadence/sky130_release_0.1.0/cells/pfet_g5v0d16v0/sky130_fd_pr__pfet_g5v0d16v0__parasitic__diode_pw2dn.model.spice
Reading file: 
        /home/eda/edk_cadence/sky130_release_0.1.0/cells/pnp_05v5/sky130_fd_pr__pnp_05v5_W0p68L0p68.model.spice
Reading file: 
        /home/eda/edk_cadence/sky130_release_0.1.0/cells/pfet_g5v0d16v0/sky130_fd_pr__pfet_g5v0d16v0.pm3.spice
Reading file: 
        /home/eda/edk_cadence/sky130_release_0.1.0/cells/pfet_g5v0d16v0/sky130_fd_pr__pfet_g5v0d16v0__subcircuit.pm3.spice
Reading file: 
        /home/eda/edk_cadence/sky130_release_0.1.0/cells/cap_var_lvt/sky130_fd_pr__cap_var_lvt.model.spice
Reading file: 
        /home/eda/edk_cadence/sky130_release_0.1.0/cells/cap_vpp_08p6x07p8_l1m1m2_noshield/sky130_fd_pr__cap_vpp_08p6x07p8_l1m1m2_noshield_o1.model.spice
Reading file: 
        /home/eda/edk_cadence/sky130_release_0.1.0/models/capacitors/sky130_fd_pr__model__cap_mim.model.spice
Reading file: 
        /home/eda/edk_cadence/sky130_release_0.1.0/cells/cap_mim_m3/sky130_fd_pr__cap_mim_m3_1.model.spice
Reading file: 
        /home/eda/edk_cadence/sky130_release_0.1.0/cells/cap_mim_m3/sky130_fd_pr__cap_mim_m3_2.model.spice
Reading file: 
        /home/eda/edk_cadence/sky130_release_0.1.0/models/capacitors/sky130_fd_pr__model__cap_vpp_only_mos.model.spice
Reading file: 
        /home/eda/edk_cadence/sky130_release_0.1.0/cells/cap_vpp_04p4x04p6_m1m2_noshield/sky130_fd_pr__cap_vpp_04p4x04p6_m1m2_noshield_o1nhv.model.spice
Reading file: 
        /home/eda/edk_cadence/sky130_release_0.1.0/cells/cap_vpp_04p4x04p6_m1m2_noshield/sky130_fd_pr__cap_vpp_04p4x04p6_m1m2_noshield_o1phv.model.spice
Reading file: 
        /home/eda/edk_cadence/sky130_release_0.1.0/models/sonos_p/begin_of_life/mm.spice
Reading file: 
        /home/eda/edk_cadence/sky130_release_0.1.0/models/sonos_e/begin_of_life/mm.spice
Reading file:  /home/eda/edk_cadence/sky130_release_0.1.0/models/head.spice
Reading file: 
        /home/eda/edk_cadence/sky130_release_0.1.0/cells/special_nfet_pass/sky130_fd_pr__special_nfet_pass.pm3.spice
Reading file: 
        /home/eda/edk_cadence/sky130_release_0.1.0/cells/special_nfet_latch/sky130_fd_pr__special_nfet_latch.pm3.spice
Reading file: 
        /home/eda/edk_cadence/sky130_release_0.1.0/cells/special_pfet_pass/sky130_fd_pr__special_pfet_pass.pm3.spice
Reading file: 
        /home/eda/edk_cadence/sky130_release_0.1.0/cells/special_nfet_pass_flash/sky130_fd_pr__special_nfet_pass_flash.pm3.spice
Reading file: 
        /home/eda/edk_cadence/sky130_release_0.1.0/models/capacitors/sky130_fd_pr__model__cap_vpp_only_pq.model.spice
Reading file: 
        /home/eda/edk_cadence/sky130_release_0.1.0/cells/cap_vpp_08p6x07p8_m1m2m3_shieldl1/sky130_fd_pr__cap_vpp_08p6x07p8_m1m2m3_shieldl1.model.spice
Reading file: 
        /home/eda/edk_cadence/sky130_release_0.1.0/cells/cap_vpp_04p4x04p6_m1m2m3_shieldl1/sky130_fd_pr__cap_vpp_04p4x04p6_m1m2m3_shieldl1.model.spice
Reading file: 
        /home/eda/edk_cadence/sky130_release_0.1.0/cells/cap_vpp_11p5x11p7_m1m2m3_shieldl1/sky130_fd_pr__cap_vpp_11p5x11p7_m1m2m3_shieldl1.model.spice
Reading file: 
        /home/eda/edk_cadence/sky130_release_0.1.0/cells/cap_vpp_11p5x11p7_l1m1m2m3_shieldm4/sky130_fd_pr__cap_vpp_11p5x11p7_l1m1m2m3_shieldm4.model.spice
Reading file: 
        /home/eda/edk_cadence/sky130_release_0.1.0/cells/cap_vpp_11p5x11p7_l1m1m2m3_shieldpom4/sky130_fd_pr__cap_vpp_11p5x11p7_l1m1m2m3_shieldpom4.model.spice
Reading file: 
        /home/eda/edk_cadence/sky130_release_0.1.0/cells/cap_vpp_06p8x06p1_l1m1m2m3_shieldpom4/sky130_fd_pr__cap_vpp_06p8x06p1_l1m1m2m3_shieldpom4.model.spice
Reading file: 
        /home/eda/edk_cadence/sky130_release_0.1.0/cells/cap_vpp_06p8x06p1_m1m2m3_shieldl1m4/sky130_fd_pr__cap_vpp_06p8x06p1_m1m2m3_shieldl1m4.model.spice
Reading file: 
        /home/eda/edk_cadence/sky130_release_0.1.0/models/capacitors/sky130_fd_pr__model__cap_vpp_only_p.model.spice
Reading file: 
        /home/eda/edk_cadence/sky130_release_0.1.0/cells/cap_vpp_11p5x11p7_l1m1m2m3m4_shieldm5/sky130_fd_pr__cap_vpp_11p5x11p7_l1m1m2m3m4_shieldm5.model.spice
Reading file: 
        /home/eda/edk_cadence/sky130_release_0.1.0/cells/cap_vpp_11p5x11p7_l1m1m2m3m4_shieldpom5/sky130_fd_pr__cap_vpp_11p5x11p7_l1m1m2m3m4_shieldpom5.model.spice
Reading file: 
        /home/eda/edk_cadence/sky130_release_0.1.0/cells/cap_vpp_11p5x11p7_m1m2m3m4_shieldl1m5/sky130_fd_pr__cap_vpp_11p5x11p7_m1m2m3m4_shieldl1m5.model.spice
Reading file: 
        /home/eda/edk_cadence/sky130_release_0.1.0/cells/cap_vpp_11p5x11p7_m1m4_noshield/sky130_fd_pr__cap_vpp_11p5x11p7_m1m4_noshield.model.spice
Reading file: 
        /home/eda/edk_cadence/sky130_release_0.1.0/cells/cap_vpp_11p5x11p7_m1m2m3m4_shieldm5/sky130_fd_pr__cap_vpp_11p5x11p7_m1m2m3m4_shieldm5.model.spice
Reading file: 
        /home/eda/edk_cadence/sky130_release_0.1.0/cells/cap_vpp_08p6x07p8_m1m2m3_shieldl1m5_floatm4/sky130_fd_pr__cap_vpp_08p6x07p8_m1m2m3_shieldl1m5_floatm4.model.spice
Reading file: 
        /home/eda/edk_cadence/sky130_release_0.1.0/cells/cap_vpp_04p4x04p6_m1m2m3_shieldl1m5_floatm4/sky130_fd_pr__cap_vpp_04p4x04p6_m1m2m3_shieldl1m5_floatm4.model.spice
Reading file: 
        /home/eda/edk_cadence/sky130_release_0.1.0/cells/cap_vpp_11p5x11p7_m1m2m3_shieldl1m5_floatm4/sky130_fd_pr__cap_vpp_11p5x11p7_m1m2m3_shieldl1m5_floatm4.model.spice
Reading file: 
        /home/eda/edk_cadence/sky130_release_0.1.0/cells/cap_vpp_11p3x11p8_l1m1m2m3m4_shieldm5/sky130_fd_pr__cap_vpp_11p3x11p8_l1m1m2m3m4_shieldm5_nhv.model.spice
Reading file: 
        /home/eda/edk_cadence/sky130_release_0.1.0/cells/cap_vpp_11p3x11p8_l1m1m2m3m4_shieldm5/sky130_fd_pr__cap_vpp_11p3x11p8_l1m1m2m3m4_shieldm5_nhv__base.model.spice
Reading file: 
        /home/eda/edk_cadence/sky130_release_0.1.0/cells/cap_vpp_11p5x11p7_l1m1m2m3m4_shieldpom5/sky130_fd_pr__cap_vpp_11p5x11p7_l1m1m2m3m4_shieldpom5_x.model.spice
Reading file: 
        /home/eda/edk_cadence/sky130_release_0.1.0/cells/cap_vpp_02p9x06p1_m1m2m3m4_shieldl1/sky130_fd_pr__cap_vpp_02p9x06p1_m1m2m3m4_shieldl1_fingercap2.model.spice
Reading file: 
        /home/eda/edk_cadence/sky130_release_0.1.0/cells/cap_vpp_02p7x11p1_m1m2m3m4_shieldl1/sky130_fd_pr__cap_vpp_02p7x11p1_m1m2m3m4_shieldl1_fingercap.model.spice
Reading file: 
        /home/eda/edk_cadence/sky130_release_0.1.0/cells/cap_vpp_02p7x21p1_m1m2m3m4_shieldl1/sky130_fd_pr__cap_vpp_02p7x21p1_m1m2m3m4_shieldl1_fingercap.model.spice
Reading file: 
        /home/eda/edk_cadence/sky130_release_0.1.0/cells/cap_vpp_02p7x41p1_m1m2m3m4_shieldl1/sky130_fd_pr__cap_vpp_02p7x41p1_m1m2m3m4_shieldl1_fingercap.model.spice
Reading file: 
        /home/eda/edk_cadence/sky130_release_0.1.0/cells/cap_vpp_02p7x06p1_m1m2m3m4_shieldl1/sky130_fd_pr__cap_vpp_02p7x06p1_m1m2m3m4_shieldl1_fingercap.model.spice
Reading file: 
        /home/eda/edk_cadence/sky130_release_0.1.0/cells/cap_vpp_11p3x11p3_m1m2m3m4_shieldl1/sky130_fd_pr__cap_vpp_11p3x11p3_m1m2m3m4_shieldl1_wafflecap.model.spice
Reading file: 
        /home/eda/edk_cadence/sky130_release_0.1.0/cells/cap_vpp_05p9x05p9_m1m2m3m4_shieldl1/sky130_fd_pr__cap_vpp_05p9x05p9_m1m2m3m4_shieldl1_wafflecap.model.spice
Reading file: 
        /home/eda/edk_cadence/sky130_release_0.1.0/cells/cap_vpp_44p7x23p1_pol1m1m2m3m4m5_noshield/sky130_fd_pr__cap_vpp_44p7x23p1_pol1m1m2m3m4m5_noshield.model.spice
Reading file: 
        /home/eda/edk_cadence/sky130_release_0.1.0/models/sky130_fd_pr__model__linear.model.spice
Reading file: 
        /home/eda/edk_cadence/sky130_release_0.1.0/models/parasitics/sky130_fd_pr__model__parasitic__res_po.model.spice
Reading file: 
        /home/eda/edk_cadence/sky130_release_0.1.0/cells/res_xhigh_po/sky130_fd_pr__res_xhigh_po.model.spice
Reading file: 
        /home/eda/edk_cadence/sky130_release_0.1.0/cells/res_high_po/sky130_fd_pr__res_high_po.model.spice
Reading file: 
        /home/eda/edk_cadence/sky130_release_0.1.0/cells/res_xhigh_po/sky130_fd_pr__res_xhigh_po_0p35.model.spice
Reading file: 
        /home/eda/edk_cadence/sky130_release_0.1.0/cells/res_xhigh_po/sky130_fd_pr__res_xhigh_po_0p69.model.spice
Reading file: 
        /home/eda/edk_cadence/sky130_release_0.1.0/cells/res_xhigh_po/sky130_fd_pr__res_xhigh_po_1p41.model.spice
Reading file: 
        /home/eda/edk_cadence/sky130_release_0.1.0/cells/res_xhigh_po/sky130_fd_pr__res_xhigh_po_2p85.model.spice
Reading file: 
        /home/eda/edk_cadence/sky130_release_0.1.0/cells/res_xhigh_po/sky130_fd_pr__res_xhigh_po_5p73.model.spice
Reading file: 
        /home/eda/edk_cadence/sky130_release_0.1.0/cells/res_xhigh_po/sky130_fd_pr__res_xhigh_po__base.model.spice
Reading file: 
        /home/eda/edk_cadence/sky130_release_0.1.0/cells/res_high_po/sky130_fd_pr__res_high_po_0p35.model.spice
Reading file: 
        /home/eda/edk_cadence/sky130_release_0.1.0/cells/res_high_po/sky130_fd_pr__res_high_po_0p69.model.spice
Reading file: 
        /home/eda/edk_cadence/sky130_release_0.1.0/cells/res_high_po/sky130_fd_pr__res_high_po_1p41.model.spice
Reading file: 
        /home/eda/edk_cadence/sky130_release_0.1.0/cells/res_high_po/sky130_fd_pr__res_high_po_2p85.model.spice
Reading file: 
        /home/eda/edk_cadence/sky130_release_0.1.0/cells/res_high_po/sky130_fd_pr__res_high_po_5p73.model.spice
Reading file: 
        /home/eda/edk_cadence/sky130_release_0.1.0/cells/rf_nfet_g5v0d10v5/sky130_fd_pr__rf_nfet_g5v0d10v5.pm3.spice
Reading file: 
        /home/eda/edk_cadence/sky130_release_0.1.0/cells/rf_nfet_01v8_lvt/sky130_fd_pr__rf_nfet_01v8_lvt.pm3.spice
Reading file: 
        /home/eda/edk_cadence/sky130_release_0.1.0/cells/rf_nfet_01v8/sky130_fd_pr__rf_nfet_01v8.pm3.spice
Reading file: 
        /home/eda/edk_cadence/sky130_release_0.1.0/cells/rf_pfet_01v8/sky130_fd_pr__rf_pfet_01v8.pm3.spice
Reading file: 
        /home/eda/edk_cadence/sky130_release_0.1.0/cells/rf_pfet_01v8_mvt/sky130_fd_pr__rf_pfet_01v8_mvt.pm3.spice
Reading file: 
        /home/eda/edk_cadence/sky130_release_0.1.0/models/corners/tt/rf.spice
Reading file: 
        /home/eda/edk_cadence/sky130_release_0.1.0/cells/rf_nfet_01v8/sky130_fd_pr__rf_nfet_01v8_b__tt.corner.spice
Reading file: 
        /home/eda/edk_cadence/sky130_release_0.1.0/cells/rf_nfet_01v8/sky130_fd_pr__rf_nfet_01v8_b.pm3.spice
Reading file: 
        /home/eda/edk_cadence/sky130_release_0.1.0/cells/rf_nfet_01v8_lvt/sky130_fd_pr__rf_nfet_01v8_lvt_b__tt.corner.spice
Reading file: 
        /home/eda/edk_cadence/sky130_release_0.1.0/cells/rf_nfet_01v8_lvt/sky130_fd_pr__rf_nfet_01v8_lvt_b.pm3.spice
Reading file: 
        /home/eda/edk_cadence/sky130_release_0.1.0/cells/rf_nfet_g5v0d10v5/sky130_fd_pr__rf_nfet_g5v0d10v5_b__tt.corner.spice
Reading file: 
        /home/eda/edk_cadence/sky130_release_0.1.0/cells/rf_nfet_g5v0d10v5/sky130_fd_pr__rf_nfet_g5v0d10v5_b.pm3.spice
Reading file: 
        /home/eda/edk_cadence/sky130_release_0.1.0/cells/rf_pfet_01v8/sky130_fd_pr__rf_pfet_01v8_b__tt.corner.spice
Reading file: 
        /home/eda/edk_cadence/sky130_release_0.1.0/cells/rf_pfet_01v8/sky130_fd_pr__rf_pfet_01v8_b.pm3.spice
Reading file: 
        /home/eda/edk_cadence/sky130_release_0.1.0/cells/rf_nfet_01v8/sky130_fd_pr__rf_nfet_01v8__mismatch.corner.spice
Reading file: 
        /home/eda/edk_cadence/sky130_release_0.1.0/cells/rf_nfet_01v8_lvt/sky130_fd_pr__rf_nfet_01v8_lvt__mismatch.corner.spice
Reading file: 
        /home/eda/edk_cadence/sky130_release_0.1.0/cells/rf_nfet_g5v0d10v5/sky130_fd_pr__rf_nfet_g5v0d10v5__mismatch.corner.spice
Reading file: 
        /home/eda/edk_cadence/sky130_release_0.1.0/cells/rf_pfet_01v8/sky130_fd_pr__rf_pfet_01v8__mismatch.corner.spice
Reading file: 
        /home/eda/edk_cadence/sky130_release_0.1.0/cells/rf_pfet_01v8_mvt/sky130_fd_pr__rf_pfet_01v8_mvt__tt_discrete.corner.spice
Reading file: 
        /home/eda/edk_cadence/sky130_release_0.1.0/cells/pfet_01v8_mvt/sky130_fd_pr__pfet_01v8_mvt.pm3.spice
Reading file: 
        /home/eda/edk_cadence/sky130_release_0.1.0/cells/rf_pfet_01v8_mvt/sky130_fd_pr__rf_pfet_01v8_mvt__mismatch.corner.spice
Reading file: 
        /home/eda/edk_cadence/sky130_release_0.1.0/cells/pfet_20v0/sky130_fd_pr__pfet_20v0__tt_discrete.corner.spice
Reading file: 
        /home/eda/edk_cadence/sky130_release_0.1.0/cells/pfet_20v0/sky130_fd_pr__pfet_20v0__subcircuit.pm3.spice
Reading file: 
        /home/eda/edk_cadence/sky130_release_0.1.0/cells/pfet_20v0/sky130_fd_pr__pfet_20v0__parasitic__diode_pw2dn.model.spice
Reading file: 
        /home/eda/edk_cadence/sky130_release_0.1.0/cells/nfet_20v0/sky130_fd_pr__nfet_20v0__tt_discrete.corner.spice
Reading file: 
        /home/eda/edk_cadence/sky130_release_0.1.0/cells/nfet_20v0/sky130_fd_pr__nfet_20v0__subcircuit.pm3.spice
Reading file: 
        /home/eda/edk_cadence/sky130_release_0.1.0/models/parasitics/sky130_fd_pr__model__parasitic__diode_pw2dn__extended_drain.model.spice
Reading file: 
        /home/eda/edk_cadence/sky130_release_0.1.0/cells/diode_pw2nd_05v5/sky130_fd_pr__diode_pw2nd_05v5__extended_drain.model.spice
Reading file: 
        /home/eda/edk_cadence/sky130_release_0.1.0/cells/nfet_20v0_iso/sky130_fd_pr__nfet_20v0_iso__subcircuit.pm3.spice
Reading file: 
        /home/eda/edk_cadence/sky130_release_0.1.0/models/parasitics/sky130_fd_pr__model__parasitic__diode_ps2dn__extended_drain.model.spice
Reading file: 
        /home/eda/edk_cadence/sky130_release_0.1.0/cells/nfet_20v0_reverse_iso/sky130_fd_pr__nfet_20v0_reverse_iso__subcircuit.pm3.spice
Reading file: 
        /home/eda/edk_cadence/sky130_release_0.1.0/cells/nfet_20v0_zvt/sky130_fd_pr__nfet_20v0_zvt__tt_discrete.corner.spice
Reading file: 
        /home/eda/edk_cadence/sky130_release_0.1.0/cells/nfet_20v0_zvt/sky130_fd_pr__nfet_20v0_zvt__subcircuit.pm3.spice
Reading file: 
        /home/eda/edk_cadence/sky130_release_0.1.0/cells/nfet_20v0_zvt/sky130_fd_pr__nfet_20v0_zvt__parasitic__diode_ps2dn__extended_drain.model.spice
Reading file: 
        /home/eda/edk_cadence/sky130_release_0.1.0/cells/nfet_20v0_nvt/sky130_fd_pr__nfet_20v0_nvt__tt_discrete.corner.spice
Reading file: 
        /home/eda/edk_cadence/sky130_release_0.1.0/cells/nfet_20v0_nvt/sky130_fd_pr__nfet_20v0_nvt__subcircuit.pm3.spice
Reading file: 
        /home/eda/edk_cadence/sky130_release_0.1.0/cells/nfet_20v0_nvt/sky130_fd_pr__nfet_20v0_nvt__parasitic__diode_ps2dn.model.spice
Reading file: 
        /home/me59/bjt_amp_langgraph/seed_0_7f3a9c2e/trial_2/candidate.scs
Time for NDB Parsing: CPU = 709.816 ms, elapsed = 945.747 ms.
Time accumulated: CPU = 777.759 ms, elapsed = 945.753 ms.
Peak resident memory used = 87.2 Mbytes.

Time for Elaboration: CPU = 30.411 ms, elapsed = 30.4201 ms.
Time accumulated: CPU = 808.286 ms, elapsed = 976.288 ms.
Peak resident memory used = 99.4 Mbytes.


Time for EDB Visiting: CPU = 731 us, elapsed = 730.991 us.
Time accumulated: CPU = 809.126 ms, elapsed = 977.127 ms.
Peak resident memory used = 100 Mbytes.


Warning from spectre during initial setup.
    WARNING (CMI-2275): XDUT.XQ1.sky130_fd_pr__npn_05v5_W1p00L1p00__model:
        Temperature effects have made `rbm' less than `minr'.

Global user options:
             rawfmt = psfxl

Scoped user options:

Circuit inventory:
              nodes 6
                bjt 1     
          capacitor 4     
           resistor 3     
            vsource 3     

Analysis and control statement inventory:
                 ac 1     

Output statements:
             .probe 0     
           .measure 0     
               save 1     

Time for parsing: CPU = 4.2 ms, elapsed = 28.0249 ms.
Time accumulated: CPU = 813.414 ms, elapsed = 1.00524 s.
Peak resident memory used = 102 Mbytes.

~~~~~~~~~~~~~~~~~~~~~~
Pre-Simulation Summary
~~~~~~~~~~~~~~~~~~~~~~
~~~~~~~~~~~~~~~~~~~~~~

********************************************
AC Analysis `ac': freq = (100 mHz -> 10 MHz)
********************************************
DC simulation time: CPU = 635 us, elapsed = 635.862 us.

Opening the PSF file
        /home/me59/bjt_amp_langgraph/seed_0_7f3a9c2e/trial_2/ac_psf/ac.ac ...
......9......8......7......6......5......4......3......2......1......0
Accumulated DC solution time =            0 s.
Intrinsic ac analysis time =              0 s.
Total time required for ac analysis `ac': CPU = 10.842 ms, elapsed = 20.6509
        ms.
Time accumulated: CPU = 834.877 ms, elapsed = 1.03626 s.
Peak resident memory used = 104 Mbytes.


Aggregate audit (1:06:02 PM, Wed Jun 3, 2026):
Time used: CPU = 894 ms, elapsed = 1.11 s, util. = 80.6%.
Time spent in licensing: elapsed = 131 ms, percentage of total = 11.9%.
Peak memory used = 104 Mbytes.
Simulation started at: 1:06:00 PM, Wed Jun 3, 2026, ended at: 1:06:02 PM, Wed
        Jun 3, 2026, with elapsed time (wall clock): 1.11 s.
spectre completes with 0 errors, 1 warning, and 1 notice.

Spectre (R) Circuit Simulator
Version 19.1.0.162.isr1 64bit -- 14 Oct 2019
Copyright (C) 1989-2019 Cadence Design Systems, Inc. All rights reserved
        worldwide. Cadence and Spectre are registered trademarks of Cadence
        Design Systems, Inc. All others are the property of their respective
        holders.

Includes RSA BSAFE(R) Cryptographic or Security Protocol Software from RSA
        Security, Inc.

User: me59   Host: dice   HostID: B4A34EA0   PID: 143321
Memory  available: 135.4720 GB  physical: 269.9321 GB
Linux   : CentOS Linux release 7.9.2009 (Core)
CPU Type: Intel(R) Xeon(R) Gold 6242R CPU @ 3.10GHz
        Socket: Processors [Frequency] (Hyperthreaded Processor)
        0:       0 [1413.2] ( 40 ),  1 [2757.7] ( 41 ),  2 [2189.5] ( 42 )
                 3 [1546.4] ( 43 ),  4 [1299.9] ( 44 ),  5 [1251.2] ( 45 )
                 6 [1403.6] ( 46 ),  7 [2680.1] ( 47 ),  8 [1386.3] ( 48 )
                 9 [1276.0] ( 49 ), 10 [1395.4] ( 50 ), 11 [1751.1] ( 51 )
                12 [1284.9] ( 52 ), 13 [1200.0] ( 53 ), 14 [1713.9] ( 54 )
                15 [1200.0] ( 55 ), 16 [1495.5] ( 56 ), 17 [1215.1] ( 57 )
                18 [1473.2] ( 58 ), 19 [1490.0] ( 59 )
        1:      20 [1207.0] ( 60 ), 21 [1421.9] ( 61 ), 22 [2100.8] ( 62 )
                23 [3799.9] ( 63 ), 24 [3100.0] ( 64 ), 25 [1386.0] ( 65 )
                26 [1200.0] ( 66 ), 27 [1585.8] ( 67 ), 28 [1411.7] ( 68 )
                29 [1376.9] ( 69 ), 30 [1424.9] ( 70 ), 31 [1585.4] ( 71 )
                32 [1209.6] ( 72 ), 33 [1392.4] ( 73 ), 34 [1202.2] ( 74 )
                35 [1200.0] ( 75 ), 36 [1283.4] ( 76 ), 37 [1200.2] ( 77 )
                38 [1200.0] ( 78 ), 39 [1248.0] ( 79 )
        
System load averages (1min, 5min, 15min) : 3.1 %, 2.9 %, 3.0 %
Hyperthreading is enabled


Simulating `/home/me59/bjt_amp_langgraph/seed_0_7f3a9c2e/trial_2/tb_tran.scs'
        on dice at 1:06:02 PM, Wed Jun 3, 2026 (process id: 143321).
Current working directory:
        /home/me59/bjt_amp_langgraph/seed_0_7f3a9c2e/trial_2
Command line:
    /home/eda/cadence/spectre191/tools.lnx86/bin/spectre -64  \
        /home/me59/bjt_amp_langgraph/seed_0_7f3a9c2e/trial_2/tb_tran.scs  \
        +escchars +log  \
        /home/me59/bjt_amp_langgraph/seed_0_7f3a9c2e/trial_2/spectre_tran.log 
        \
        -format psfxl -raw  \
        /home/me59/bjt_amp_langgraph/seed_0_7f3a9c2e/trial_2/tran_psf  \
        +lqtimeout 60
Reading file: 
        /home/me59/bjt_amp_langgraph/seed_0_7f3a9c2e/trial_2/tb_tran.scs
Reading file: 
        /home/eda/cadence/spectre191/tools.lnx86/spectre/etc/configs/spectre.cfg
Reading file: 
        /home/eda/edk_cadence/sky130_release_0.1.0/models/sky130.lib.spice
Reading file: 
        /home/eda/edk_cadence/sky130_release_0.1.0/cells/nfet_01v8/sky130_fd_pr__nfet_01v8__tt.corner.spice
Reading file: 
        /home/eda/edk_cadence/sky130_release_0.1.0/cells/nfet_01v8/sky130_fd_pr__nfet_01v8__tt.pm3.spice
Reading file: 
        /home/eda/edk_cadence/sky130_release_0.1.0/cells/nfet_01v8_lvt/sky130_fd_pr__nfet_01v8_lvt__tt.corner.spice
Reading file: 
        /home/eda/edk_cadence/sky130_release_0.1.0/cells/nfet_01v8_lvt/sky130_fd_pr__nfet_01v8_lvt__tt.pm3.spice
Reading file: 
        /home/eda/edk_cadence/sky130_release_0.1.0/cells/pfet_01v8/sky130_fd_pr__pfet_01v8__tt.corner.spice
Reading file: 
        /home/eda/edk_cadence/sky130_release_0.1.0/cells/pfet_01v8/sky130_fd_pr__pfet_01v8__tt.pm3.spice
Reading file: 
        /home/eda/edk_cadence/sky130_release_0.1.0/cells/nfet_03v3_nvt/sky130_fd_pr__nfet_03v3_nvt__tt.corner.spice
Reading file: 
        /home/eda/edk_cadence/sky130_release_0.1.0/cells/nfet_03v3_nvt/sky130_fd_pr__nfet_03v3_nvt.pm3.spice
Reading file: 
        /home/eda/edk_cadence/sky130_release_0.1.0/cells/nfet_05v0_nvt/sky130_fd_pr__nfet_05v0_nvt__tt.corner.spice
Reading file: 
        /home/eda/edk_cadence/sky130_release_0.1.0/cells/nfet_05v0_nvt/sky130_fd_pr__nfet_05v0_nvt.pm3.spice
Reading file: 
        /home/eda/edk_cadence/sky130_release_0.1.0/cells/esd_nfet_01v8/sky130_fd_pr__esd_nfet_01v8__tt.corner.spice
Reading file: 
        /home/eda/edk_cadence/sky130_release_0.1.0/cells/esd_nfet_01v8/sky130_fd_pr__esd_nfet_01v8.pm3.spice
Reading file: 
        /home/eda/edk_cadence/sky130_release_0.1.0/cells/pfet_01v8_lvt/sky130_fd_pr__pfet_01v8_lvt__tt.corner.spice
Reading file: 
        /home/eda/edk_cadence/sky130_release_0.1.0/cells/pfet_01v8_lvt/sky130_fd_pr__pfet_01v8_lvt__tt.pm3.spice
Reading file: 
        /home/eda/edk_cadence/sky130_release_0.1.0/cells/pfet_01v8_hvt/sky130_fd_pr__pfet_01v8_hvt__tt.corner.spice
Reading file: 
        /home/eda/edk_cadence/sky130_release_0.1.0/cells/pfet_01v8_hvt/sky130_fd_pr__pfet_01v8_hvt__tt.pm3.spice
Reading file: 
        /home/eda/edk_cadence/sky130_release_0.1.0/cells/esd_pfet_g5v0d10v5/sky130_fd_pr__esd_pfet_g5v0d10v5__tt.corner.spice
Reading file: 
        /home/eda/edk_cadence/sky130_release_0.1.0/cells/esd_pfet_g5v0d10v5/sky130_fd_pr__esd_pfet_g5v0d10v5.pm3.spice
Reading file: 
        /home/eda/edk_cadence/sky130_release_0.1.0/cells/pfet_g5v0d10v5/sky130_fd_pr__pfet_g5v0d10v5__tt.corner.spice
Reading file: 
        /home/eda/edk_cadence/sky130_release_0.1.0/cells/pfet_g5v0d10v5/sky130_fd_pr__pfet_g5v0d10v5__tt.pm3.spice
Reading file: 
        /home/eda/edk_cadence/sky130_release_0.1.0/cells/pfet_g5v0d16v0/sky130_fd_pr__pfet_g5v0d16v0__tt.corner.spice
Reading file: 
        /home/eda/edk_cadence/sky130_release_0.1.0/cells/nfet_g5v0d10v5/sky130_fd_pr__nfet_g5v0d10v5__tt.corner.spice
Reading file: 
        /home/eda/edk_cadence/sky130_release_0.1.0/cells/nfet_g5v0d10v5/sky130_fd_pr__nfet_g5v0d10v5__tt.pm3.spice
Reading file: 
        /home/eda/edk_cadence/sky130_release_0.1.0/cells/nfet_g5v0d16v0/sky130_fd_pr__nfet_g5v0d16v0__tt_discrete.corner.spice
Reading file: 
        /home/eda/edk_cadence/sky130_release_0.1.0/cells/nfet_g5v0d16v0/sky130_fd_pr__nfet_g5v0d16v0__subcircuit.pm3.spice
Reading file: 
        /home/eda/edk_cadence/sky130_release_0.1.0/cells/nfet_g5v0d16v0/sky130_fd_pr__nfet_g5v0d16v0.pm3.spice
Reading file: 
        /home/eda/edk_cadence/sky130_release_0.1.0/cells/esd_nfet_g5v0d10v5/sky130_fd_pr__esd_nfet_g5v0d10v5__tt.corner.spice
Reading file: 
        /home/eda/edk_cadence/sky130_release_0.1.0/cells/esd_nfet_g5v0d10v5/sky130_fd_pr__esd_nfet_g5v0d10v5.pm3.spice
Reading file: 
        /home/eda/edk_cadence/sky130_release_0.1.0/models/corners/tt/nonfet.spice
Reading file: 
        /home/eda/edk_cadence/sky130_release_0.1.0/cells/nfet_01v8/sky130_fd_pr__nfet_01v8__mismatch.corner.spice
Reading file: 
        /home/eda/edk_cadence/sky130_release_0.1.0/cells/pfet_01v8/sky130_fd_pr__pfet_01v8__mismatch.corner.spice
Reading file: 
        /home/eda/edk_cadence/sky130_release_0.1.0/cells/nfet_01v8_lvt/sky130_fd_pr__nfet_01v8_lvt__mismatch.corner.spice
Reading file: 
        /home/eda/edk_cadence/sky130_release_0.1.0/cells/pfet_01v8_lvt/sky130_fd_pr__pfet_01v8_lvt__mismatch.corner.spice
Reading file: 
        /home/eda/edk_cadence/sky130_release_0.1.0/cells/pfet_01v8_hvt/sky130_fd_pr__pfet_01v8_hvt__mismatch.corner.spice
Reading file: 
        /home/eda/edk_cadence/sky130_release_0.1.0/cells/nfet_g5v0d10v5/sky130_fd_pr__nfet_g5v0d10v5__mismatch.corner.spice
Reading file: 
        /home/eda/edk_cadence/sky130_release_0.1.0/cells/pfet_g5v0d10v5/sky130_fd_pr__pfet_g5v0d10v5__mismatch.corner.spice
Reading file: 
        /home/eda/edk_cadence/sky130_release_0.1.0/cells/nfet_05v0_nvt/sky130_fd_pr__nfet_05v0_nvt__mismatch.corner.spice
Reading file: 
        /home/eda/edk_cadence/sky130_release_0.1.0/cells/nfet_03v3_nvt/sky130_fd_pr__nfet_03v3_nvt__mismatch.corner.spice
Reading file: 
        /home/eda/edk_cadence/sky130_release_0.1.0/models/r+c/res_typical__cap_typical.spice
Reading file: 
        /home/eda/edk_cadence/sky130_release_0.1.0/models/sky130_fd_pr__model__r+c.model.spice
Reading file: 
        /home/eda/edk_cadence/sky130_release_0.1.0/models/r+c.mrp1monte.spice
Reading file: 
        /home/eda/edk_cadence/sky130_release_0.1.0/cells/res_generic_nd/sky130_fd_pr__res_generic_nd.model.spice
Reading file: 
        /home/eda/edk_cadence/sky130_release_0.1.0/cells/res_generic_pd/sky130_fd_pr__res_generic_pd.model.spice
Reading file: 
        /home/eda/edk_cadence/sky130_release_0.1.0/models/parameters/typical.spice
Reading file: 
        /home/eda/edk_cadence/sky130_release_0.1.0/models/r+c/res_typical__cap_typical__lin.spice
Reading file: 
        /home/eda/edk_cadence/sky130_release_0.1.0/models/capacitors/sky130_fd_pr__model__cap_vpp.model.spice
Reading file: 
        /home/eda/edk_cadence/sky130_release_0.1.0/cells/cap_vpp_08p6x07p8_l1m1m2_noshield/sky130_fd_pr__cap_vpp_08p6x07p8_l1m1m2_noshield.model.spice
Reading file: 
        /home/eda/edk_cadence/sky130_release_0.1.0/cells/cap_vpp_04p4x04p6_l1m1m2_noshield/sky130_fd_pr__cap_vpp_04p4x04p6_l1m1m2_noshield.model.spice
Reading file: 
        /home/eda/edk_cadence/sky130_release_0.1.0/cells/cap_vpp_11p5x11p7_l1m1m2_noshield/sky130_fd_pr__cap_vpp_11p5x11p7_l1m1m2_noshield.model.spice
Reading file: 
        /home/eda/edk_cadence/sky130_release_0.1.0/cells/cap_vpp_01p8x01p8_m1m2_noshield/sky130_fd_pr__cap_vpp_01p8x01p8_m1m2_noshield.model.spice
Reading file: 
        /home/eda/edk_cadence/sky130_release_0.1.0/cells/cap_vpp_08p6x07p8_m1m2_shieldl1/sky130_fd_pr__cap_vpp_08p6x07p8_m1m2_shieldl1.model.spice
Reading file: 
        /home/eda/edk_cadence/sky130_release_0.1.0/cells/cap_vpp_04p4x04p6_m1m2_shieldl1/sky130_fd_pr__cap_vpp_04p4x04p6_m1m2_shieldl1.model.spice
Reading file: 
        /home/eda/edk_cadence/sky130_release_0.1.0/cells/cap_vpp_11p5x11p7_m1m2_shieldl1/sky130_fd_pr__cap_vpp_11p5x11p7_m1m2_shieldl1.model.spice
Reading file: 
        /home/eda/edk_cadence/sky130_release_0.1.0/cells/cap_vpp_08p6x07p8_l1m1m2_shieldpo_floatm3/sky130_fd_pr__cap_vpp_08p6x07p8_l1m1m2_shieldpo_floatm3.model.spice
Reading file: 
        /home/eda/edk_cadence/sky130_release_0.1.0/cells/cap_vpp_04p4x04p6_l1m1m2_shieldpo_floatm3/sky130_fd_pr__cap_vpp_04p4x04p6_l1m1m2_shieldpo_floatm3.model.spice
Reading file: 
        /home/eda/edk_cadence/sky130_release_0.1.0/cells/cap_vpp_11p5x11p7_l1m1m2_shieldpom3/sky130_fd_pr__cap_vpp_11p5x11p7_l1m1m2_shieldpom3.model.spice
Reading file: 
        /home/eda/edk_cadence/sky130_release_0.1.0/cells/cap_vpp_03p9x03p9_m1m2_shieldl1_floatm3/sky130_fd_pr__cap_vpp_03p9x03p9_m1m2_shieldl1_floatm3.model.spice
Reading file: 
        /home/eda/edk_cadence/sky130_release_0.1.0/cells/cap_vpp_04p4x04p6_l1m1m2_noshield/sky130_fd_pr__cap_vpp_04p4x04p6_l1m1m2_noshield_o1.model.spice
Reading file: 
        /home/eda/edk_cadence/sky130_release_0.1.0/cells/cap_vpp_08p6x07p8_m1m2_noshield/sky130_fd_pr__cap_vpp_08p6x07p8_m1m2_noshield.model.spice
Reading file: 
        /home/eda/edk_cadence/sky130_release_0.1.0/cells/cap_vpp_04p4x04p6_m1m2_noshield/sky130_fd_pr__cap_vpp_04p4x04p6_m1m2_noshield_o2.model.spice
Reading file: 
        /home/eda/edk_cadence/sky130_release_0.1.0/cells/cap_vpp_02p4x04p6_m1m2_noshield/sky130_fd_pr__cap_vpp_02p4x04p6_m1m2_noshield.model.spice
Reading file: 
        /home/eda/edk_cadence/sky130_release_0.1.0/cells/cap_vpp_04p4x04p6_m1m2_noshield/sky130_fd_pr__cap_vpp_04p4x04p6_m1m2_noshield.model.spice
Reading file: 
        /home/eda/edk_cadence/sky130_release_0.1.0/cells/cap_vpp_11p5x11p7_m1m2_noshield/sky130_fd_pr__cap_vpp_11p5x11p7_m1m2_noshield.model.spice
Reading file: 
        /home/eda/edk_cadence/sky130_release_0.1.0/cells/npn_05v5/sky130_fd_pr__npn_05v5__t.corner.spice
Reading file: 
        /home/eda/edk_cadence/sky130_release_0.1.0/cells/npn_05v5/sky130_fd_pr__npn_05v5_W1p00L1p00.model.spice
Reading file: 
        /home/eda/edk_cadence/sky130_release_0.1.0/cells/npn_05v5/sky130_fd_pr__npn_05v5_W1p00L2p00.model.spice
Reading file: 
        /home/eda/edk_cadence/sky130_release_0.1.0/cells/npn_11v0/sky130_fd_pr__npn_11v0_W1p00L1p00.model.spice
Reading file: 
        /home/eda/edk_cadence/sky130_release_0.1.0/cells/pnp_05v5/sky130_fd_pr__pnp_05v5_W3p40L3p40.model.spice
Reading file: 
        /home/eda/edk_cadence/sky130_release_0.1.0/models/corners/tt/specialized_cells.spice
Reading file: 
        /home/eda/edk_cadence/sky130_release_0.1.0/cells/special_nfet_latch/sky130_fd_pr__special_nfet_latch__mismatch.corner.spice
Reading file: 
        /home/eda/edk_cadence/sky130_release_0.1.0/cells/special_nfet_pass/sky130_fd_pr__special_nfet_pass__mismatch.corner.spice
Reading file: 
        /home/eda/edk_cadence/sky130_release_0.1.0/cells/special_nfet_pass_flash/sky130_fd_pr__special_nfet_pass_flash__mismatch.corner.spice
Reading file: 
        /home/eda/edk_cadence/sky130_release_0.1.0/cells/special_pfet_pass/sky130_fd_pr__special_pfet_pass__mismatch.corner.spice
Reading file: 
        /home/eda/edk_cadence/sky130_release_0.1.0/cells/special_nfet_pass_lvt/sky130_fd_pr__special_nfet_pass_lvt__tt.corner.spice
Reading file: 
        /home/eda/edk_cadence/sky130_release_0.1.0/cells/special_nfet_pass_lvt/sky130_fd_pr__special_nfet_pass_lvt.pm3.spice
Reading file:  /home/eda/edk_cadence/sky130_release_0.1.0/models/all.spice
Reading file: 
        /home/eda/edk_cadence/sky130_release_0.1.0/models/parameters/lod.spice
Reading file: 
        /home/eda/edk_cadence/sky130_release_0.1.0/models/parasitics/sky130_fd_pr__model__parasitic__diode_ps2nw.model.spice
Reading file: 
        /home/eda/edk_cadence/sky130_release_0.1.0/cells/diode_pw2nd_05v5/sky130_fd_pr__diode_pw2nd_05v5.model.spice
Reading file: 
        /home/eda/edk_cadence/sky130_release_0.1.0/cells/diode_pd2nw_05v5/sky130_fd_pr__diode_pd2nw_05v5.model.spice
Reading file: 
        /home/eda/edk_cadence/sky130_release_0.1.0/cells/diode_pd2nw_05v5_hvt/sky130_fd_pr__diode_pd2nw_05v5_hvt.model.spice
Reading file: 
        /home/eda/edk_cadence/sky130_release_0.1.0/cells/diode_pw2nd_11v0/sky130_fd_pr__diode_pw2nd_11v0.model.spice
Reading file: 
        /home/eda/edk_cadence/sky130_release_0.1.0/cells/diode_pd2nw_11v0/sky130_fd_pr__diode_pd2nw_11v0.model.spice
Reading file: 
        /home/eda/edk_cadence/sky130_release_0.1.0/cells/diode_pw2nd_05v5_nvt/sky130_fd_pr__diode_pw2nd_05v5_nvt.model.spice
Reading file: 
        /home/eda/edk_cadence/sky130_release_0.1.0/cells/diode_pw2nd_05v5_lvt/sky130_fd_pr__diode_pw2nd_05v5_lvt.model.spice
Reading file: 
        /home/eda/edk_cadence/sky130_release_0.1.0/cells/diode_pd2nw_05v5_lvt/sky130_fd_pr__diode_pd2nw_05v5_lvt.model.spice
Reading file: 
        /home/eda/edk_cadence/sky130_release_0.1.0/models/parasitics/sky130_fd_pr__model__parasitic__diode_pw2dn.model.spice
Reading file: 
        /home/eda/edk_cadence/sky130_release_0.1.0/models/parasitics/sky130_fd_pr__model__parasitic__diode_ps2dn.model.spice
Reading file: 
        /home/eda/edk_cadence/sky130_release_0.1.0/cells/pfet_g5v0d16v0/sky130_fd_pr__pfet_g5v0d16v0__parasitic__diode_pw2dn.model.spice
Reading file: 
        /home/eda/edk_cadence/sky130_release_0.1.0/cells/pnp_05v5/sky130_fd_pr__pnp_05v5_W0p68L0p68.model.spice
Reading file: 
        /home/eda/edk_cadence/sky130_release_0.1.0/cells/pfet_g5v0d16v0/sky130_fd_pr__pfet_g5v0d16v0.pm3.spice
Reading file: 
        /home/eda/edk_cadence/sky130_release_0.1.0/cells/pfet_g5v0d16v0/sky130_fd_pr__pfet_g5v0d16v0__subcircuit.pm3.spice
Reading file: 
        /home/eda/edk_cadence/sky130_release_0.1.0/cells/cap_var_lvt/sky130_fd_pr__cap_var_lvt.model.spice
Reading file: 
        /home/eda/edk_cadence/sky130_release_0.1.0/cells/cap_vpp_08p6x07p8_l1m1m2_noshield/sky130_fd_pr__cap_vpp_08p6x07p8_l1m1m2_noshield_o1.model.spice
Reading file: 
        /home/eda/edk_cadence/sky130_release_0.1.0/models/capacitors/sky130_fd_pr__model__cap_mim.model.spice
Reading file: 
        /home/eda/edk_cadence/sky130_release_0.1.0/cells/cap_mim_m3/sky130_fd_pr__cap_mim_m3_1.model.spice
Reading file: 
        /home/eda/edk_cadence/sky130_release_0.1.0/cells/cap_mim_m3/sky130_fd_pr__cap_mim_m3_2.model.spice
Reading file: 
        /home/eda/edk_cadence/sky130_release_0.1.0/models/capacitors/sky130_fd_pr__model__cap_vpp_only_mos.model.spice
Reading file: 
        /home/eda/edk_cadence/sky130_release_0.1.0/cells/cap_vpp_04p4x04p6_m1m2_noshield/sky130_fd_pr__cap_vpp_04p4x04p6_m1m2_noshield_o1nhv.model.spice
Reading file: 
        /home/eda/edk_cadence/sky130_release_0.1.0/cells/cap_vpp_04p4x04p6_m1m2_noshield/sky130_fd_pr__cap_vpp_04p4x04p6_m1m2_noshield_o1phv.model.spice
Reading file: 
        /home/eda/edk_cadence/sky130_release_0.1.0/models/sonos_p/begin_of_life/mm.spice
Reading file: 
        /home/eda/edk_cadence/sky130_release_0.1.0/models/sonos_e/begin_of_life/mm.spice
Reading file:  /home/eda/edk_cadence/sky130_release_0.1.0/models/head.spice
Reading file: 
        /home/eda/edk_cadence/sky130_release_0.1.0/cells/special_nfet_pass/sky130_fd_pr__special_nfet_pass.pm3.spice
Reading file: 
        /home/eda/edk_cadence/sky130_release_0.1.0/cells/special_nfet_latch/sky130_fd_pr__special_nfet_latch.pm3.spice
Reading file: 
        /home/eda/edk_cadence/sky130_release_0.1.0/cells/special_pfet_pass/sky130_fd_pr__special_pfet_pass.pm3.spice
Reading file: 
        /home/eda/edk_cadence/sky130_release_0.1.0/cells/special_nfet_pass_flash/sky130_fd_pr__special_nfet_pass_flash.pm3.spice
Reading file: 
        /home/eda/edk_cadence/sky130_release_0.1.0/models/capacitors/sky130_fd_pr__model__cap_vpp_only_pq.model.spice
Reading file: 
        /home/eda/edk_cadence/sky130_release_0.1.0/cells/cap_vpp_08p6x07p8_m1m2m3_shieldl1/sky130_fd_pr__cap_vpp_08p6x07p8_m1m2m3_shieldl1.model.spice
Reading file: 
        /home/eda/edk_cadence/sky130_release_0.1.0/cells/cap_vpp_04p4x04p6_m1m2m3_shieldl1/sky130_fd_pr__cap_vpp_04p4x04p6_m1m2m3_shieldl1.model.spice
Reading file: 
        /home/eda/edk_cadence/sky130_release_0.1.0/cells/cap_vpp_11p5x11p7_m1m2m3_shieldl1/sky130_fd_pr__cap_vpp_11p5x11p7_m1m2m3_shieldl1.model.spice
Reading file: 
        /home/eda/edk_cadence/sky130_release_0.1.0/cells/cap_vpp_11p5x11p7_l1m1m2m3_shieldm4/sky130_fd_pr__cap_vpp_11p5x11p7_l1m1m2m3_shieldm4.model.spice
Reading file: 
        /home/eda/edk_cadence/sky130_release_0.1.0/cells/cap_vpp_11p5x11p7_l1m1m2m3_shieldpom4/sky130_fd_pr__cap_vpp_11p5x11p7_l1m1m2m3_shieldpom4.model.spice
Reading file: 
        /home/eda/edk_cadence/sky130_release_0.1.0/cells/cap_vpp_06p8x06p1_l1m1m2m3_shieldpom4/sky130_fd_pr__cap_vpp_06p8x06p1_l1m1m2m3_shieldpom4.model.spice
Reading file: 
        /home/eda/edk_cadence/sky130_release_0.1.0/cells/cap_vpp_06p8x06p1_m1m2m3_shieldl1m4/sky130_fd_pr__cap_vpp_06p8x06p1_m1m2m3_shieldl1m4.model.spice
Reading file: 
        /home/eda/edk_cadence/sky130_release_0.1.0/models/capacitors/sky130_fd_pr__model__cap_vpp_only_p.model.spice
Reading file: 
        /home/eda/edk_cadence/sky130_release_0.1.0/cells/cap_vpp_11p5x11p7_l1m1m2m3m4_shieldm5/sky130_fd_pr__cap_vpp_11p5x11p7_l1m1m2m3m4_shieldm5.model.spice
Reading file: 
        /home/eda/edk_cadence/sky130_release_0.1.0/cells/cap_vpp_11p5x11p7_l1m1m2m3m4_shieldpom5/sky130_fd_pr__cap_vpp_11p5x11p7_l1m1m2m3m4_shieldpom5.model.spice
Reading file: 
        /home/eda/edk_cadence/sky130_release_0.1.0/cells/cap_vpp_11p5x11p7_m1m2m3m4_shieldl1m5/sky130_fd_pr__cap_vpp_11p5x11p7_m1m2m3m4_shieldl1m5.model.spice
Reading file: 
        /home/eda/edk_cadence/sky130_release_0.1.0/cells/cap_vpp_11p5x11p7_m1m4_noshield/sky130_fd_pr__cap_vpp_11p5x11p7_m1m4_noshield.model.spice
Reading file: 
        /home/eda/edk_cadence/sky130_release_0.1.0/cells/cap_vpp_11p5x11p7_m1m2m3m4_shieldm5/sky130_fd_pr__cap_vpp_11p5x11p7_m1m2m3m4_shieldm5.model.spice
Reading file: 
        /home/eda/edk_cadence/sky130_release_0.1.0/cells/cap_vpp_08p6x07p8_m1m2m3_shieldl1m5_floatm4/sky130_fd_pr__cap_vpp_08p6x07p8_m1m2m3_shieldl1m5_floatm4.model.spice
Reading file: 
        /home/eda/edk_cadence/sky130_release_0.1.0/cells/cap_vpp_04p4x04p6_m1m2m3_shieldl1m5_floatm4/sky130_fd_pr__cap_vpp_04p4x04p6_m1m2m3_shieldl1m5_floatm4.model.spice
Reading file: 
        /home/eda/edk_cadence/sky130_release_0.1.0/cells/cap_vpp_11p5x11p7_m1m2m3_shieldl1m5_floatm4/sky130_fd_pr__cap_vpp_11p5x11p7_m1m2m3_shieldl1m5_floatm4.model.spice
Reading file: 
        /home/eda/edk_cadence/sky130_release_0.1.0/cells/cap_vpp_11p3x11p8_l1m1m2m3m4_shieldm5/sky130_fd_pr__cap_vpp_11p3x11p8_l1m1m2m3m4_shieldm5_nhv.model.spice
Reading file: 
        /home/eda/edk_cadence/sky130_release_0.1.0/cells/cap_vpp_11p3x11p8_l1m1m2m3m4_shieldm5/sky130_fd_pr__cap_vpp_11p3x11p8_l1m1m2m3m4_shieldm5_nhv__base.model.spice
Reading file: 
        /home/eda/edk_cadence/sky130_release_0.1.0/cells/cap_vpp_11p5x11p7_l1m1m2m3m4_shieldpom5/sky130_fd_pr__cap_vpp_11p5x11p7_l1m1m2m3m4_shieldpom5_x.model.spice
Reading file: 
        /home/eda/edk_cadence/sky130_release_0.1.0/cells/cap_vpp_02p9x06p1_m1m2m3m4_shieldl1/sky130_fd_pr__cap_vpp_02p9x06p1_m1m2m3m4_shieldl1_fingercap2.model.spice
Reading file: 
        /home/eda/edk_cadence/sky130_release_0.1.0/cells/cap_vpp_02p7x11p1_m1m2m3m4_shieldl1/sky130_fd_pr__cap_vpp_02p7x11p1_m1m2m3m4_shieldl1_fingercap.model.spice
Reading file: 
        /home/eda/edk_cadence/sky130_release_0.1.0/cells/cap_vpp_02p7x21p1_m1m2m3m4_shieldl1/sky130_fd_pr__cap_vpp_02p7x21p1_m1m2m3m4_shieldl1_fingercap.model.spice
Reading file: 
        /home/eda/edk_cadence/sky130_release_0.1.0/cells/cap_vpp_02p7x41p1_m1m2m3m4_shieldl1/sky130_fd_pr__cap_vpp_02p7x41p1_m1m2m3m4_shieldl1_fingercap.model.spice
Reading file: 
        /home/eda/edk_cadence/sky130_release_0.1.0/cells/cap_vpp_02p7x06p1_m1m2m3m4_shieldl1/sky130_fd_pr__cap_vpp_02p7x06p1_m1m2m3m4_shieldl1_fingercap.model.spice
Reading file: 
        /home/eda/edk_cadence/sky130_release_0.1.0/cells/cap_vpp_11p3x11p3_m1m2m3m4_shieldl1/sky130_fd_pr__cap_vpp_11p3x11p3_m1m2m3m4_shieldl1_wafflecap.model.spice
Reading file: 
        /home/eda/edk_cadence/sky130_release_0.1.0/cells/cap_vpp_05p9x05p9_m1m2m3m4_shieldl1/sky130_fd_pr__cap_vpp_05p9x05p9_m1m2m3m4_shieldl1_wafflecap.model.spice
Reading file: 
        /home/eda/edk_cadence/sky130_release_0.1.0/cells/cap_vpp_44p7x23p1_pol1m1m2m3m4m5_noshield/sky130_fd_pr__cap_vpp_44p7x23p1_pol1m1m2m3m4m5_noshield.model.spice
Reading file: 
        /home/eda/edk_cadence/sky130_release_0.1.0/models/sky130_fd_pr__model__linear.model.spice
Reading file: 
        /home/eda/edk_cadence/sky130_release_0.1.0/models/parasitics/sky130_fd_pr__model__parasitic__res_po.model.spice
Reading file: 
        /home/eda/edk_cadence/sky130_release_0.1.0/cells/res_xhigh_po/sky130_fd_pr__res_xhigh_po.model.spice
Reading file: 
        /home/eda/edk_cadence/sky130_release_0.1.0/cells/res_high_po/sky130_fd_pr__res_high_po.model.spice
Reading file: 
        /home/eda/edk_cadence/sky130_release_0.1.0/cells/res_xhigh_po/sky130_fd_pr__res_xhigh_po_0p35.model.spice
Reading file: 
        /home/eda/edk_cadence/sky130_release_0.1.0/cells/res_xhigh_po/sky130_fd_pr__res_xhigh_po_0p69.model.spice
Reading file: 
        /home/eda/edk_cadence/sky130_release_0.1.0/cells/res_xhigh_po/sky130_fd_pr__res_xhigh_po_1p41.model.spice
Reading file: 
        /home/eda/edk_cadence/sky130_release_0.1.0/cells/res_xhigh_po/sky130_fd_pr__res_xhigh_po_2p85.model.spice
Reading file: 
        /home/eda/edk_cadence/sky130_release_0.1.0/cells/res_xhigh_po/sky130_fd_pr__res_xhigh_po_5p73.model.spice
Reading file: 
        /home/eda/edk_cadence/sky130_release_0.1.0/cells/res_xhigh_po/sky130_fd_pr__res_xhigh_po__base.model.spice
Reading file: 
        /home/eda/edk_cadence/sky130_release_0.1.0/cells/res_high_po/sky130_fd_pr__res_high_po_0p35.model.spice
Reading file: 
        /home/eda/edk_cadence/sky130_release_0.1.0/cells/res_high_po/sky130_fd_pr__res_high_po_0p69.model.spice
Reading file: 
        /home/eda/edk_cadence/sky130_release_0.1.0/cells/res_high_po/sky130_fd_pr__res_high_po_1p41.model.spice
Reading file: 
        /home/eda/edk_cadence/sky130_release_0.1.0/cells/res_high_po/sky130_fd_pr__res_high_po_2p85.model.spice
Reading file: 
        /home/eda/edk_cadence/sky130_release_0.1.0/cells/res_high_po/sky130_fd_pr__res_high_po_5p73.model.spice
Reading file: 
        /home/eda/edk_cadence/sky130_release_0.1.0/cells/rf_nfet_g5v0d10v5/sky130_fd_pr__rf_nfet_g5v0d10v5.pm3.spice
Reading file: 
        /home/eda/edk_cadence/sky130_release_0.1.0/cells/rf_nfet_01v8_lvt/sky130_fd_pr__rf_nfet_01v8_lvt.pm3.spice
Reading file: 
        /home/eda/edk_cadence/sky130_release_0.1.0/cells/rf_nfet_01v8/sky130_fd_pr__rf_nfet_01v8.pm3.spice
Reading file: 
        /home/eda/edk_cadence/sky130_release_0.1.0/cells/rf_pfet_01v8/sky130_fd_pr__rf_pfet_01v8.pm3.spice
Reading file: 
        /home/eda/edk_cadence/sky130_release_0.1.0/cells/rf_pfet_01v8_mvt/sky130_fd_pr__rf_pfet_01v8_mvt.pm3.spice
Reading file: 
        /home/eda/edk_cadence/sky130_release_0.1.0/models/corners/tt/rf.spice
Reading file: 
        /home/eda/edk_cadence/sky130_release_0.1.0/cells/rf_nfet_01v8/sky130_fd_pr__rf_nfet_01v8_b__tt.corner.spice
Reading file: 
        /home/eda/edk_cadence/sky130_release_0.1.0/cells/rf_nfet_01v8/sky130_fd_pr__rf_nfet_01v8_b.pm3.spice
Reading file: 
        /home/eda/edk_cadence/sky130_release_0.1.0/cells/rf_nfet_01v8_lvt/sky130_fd_pr__rf_nfet_01v8_lvt_b__tt.corner.spice
Reading file: 
        /home/eda/edk_cadence/sky130_release_0.1.0/cells/rf_nfet_01v8_lvt/sky130_fd_pr__rf_nfet_01v8_lvt_b.pm3.spice
Reading file: 
        /home/eda/edk_cadence/sky130_release_0.1.0/cells/rf_nfet_g5v0d10v5/sky130_fd_pr__rf_nfet_g5v0d10v5_b__tt.corner.spice
Reading file: 
        /home/eda/edk_cadence/sky130_release_0.1.0/cells/rf_nfet_g5v0d10v5/sky130_fd_pr__rf_nfet_g5v0d10v5_b.pm3.spice
Reading file: 
        /home/eda/edk_cadence/sky130_release_0.1.0/cells/rf_pfet_01v8/sky130_fd_pr__rf_pfet_01v8_b__tt.corner.spice
Reading file: 
        /home/eda/edk_cadence/sky130_release_0.1.0/cells/rf_pfet_01v8/sky130_fd_pr__rf_pfet_01v8_b.pm3.spice
Reading file: 
        /home/eda/edk_cadence/sky130_release_0.1.0/cells/rf_nfet_01v8/sky130_fd_pr__rf_nfet_01v8__mismatch.corner.spice
Reading file: 
        /home/eda/edk_cadence/sky130_release_0.1.0/cells/rf_nfet_01v8_lvt/sky130_fd_pr__rf_nfet_01v8_lvt__mismatch.corner.spice
Reading file: 
        /home/eda/edk_cadence/sky130_release_0.1.0/cells/rf_nfet_g5v0d10v5/sky130_fd_pr__rf_nfet_g5v0d10v5__mismatch.corner.spice
Reading file: 
        /home/eda/edk_cadence/sky130_release_0.1.0/cells/rf_pfet_01v8/sky130_fd_pr__rf_pfet_01v8__mismatch.corner.spice
Reading file: 
        /home/eda/edk_cadence/sky130_release_0.1.0/cells/rf_pfet_01v8_mvt/sky130_fd_pr__rf_pfet_01v8_mvt__tt_discrete.corner.spice
Reading file: 
        /home/eda/edk_cadence/sky130_release_0.1.0/cells/pfet_01v8_mvt/sky130_fd_pr__pfet_01v8_mvt.pm3.spice
Reading file: 
        /home/eda/edk_cadence/sky130_release_0.1.0/cells/rf_pfet_01v8_mvt/sky130_fd_pr__rf_pfet_01v8_mvt__mismatch.corner.spice
Reading file: 
        /home/eda/edk_cadence/sky130_release_0.1.0/cells/pfet_20v0/sky130_fd_pr__pfet_20v0__tt_discrete.corner.spice
Reading file: 
        /home/eda/edk_cadence/sky130_release_0.1.0/cells/pfet_20v0/sky130_fd_pr__pfet_20v0__subcircuit.pm3.spice
Reading file: 
        /home/eda/edk_cadence/sky130_release_0.1.0/cells/pfet_20v0/sky130_fd_pr__pfet_20v0__parasitic__diode_pw2dn.model.spice
Reading file: 
        /home/eda/edk_cadence/sky130_release_0.1.0/cells/nfet_20v0/sky130_fd_pr__nfet_20v0__tt_discrete.corner.spice
Reading file: 
        /home/eda/edk_cadence/sky130_release_0.1.0/cells/nfet_20v0/sky130_fd_pr__nfet_20v0__subcircuit.pm3.spice
Reading file: 
        /home/eda/edk_cadence/sky130_release_0.1.0/models/parasitics/sky130_fd_pr__model__parasitic__diode_pw2dn__extended_drain.model.spice
Reading file: 
        /home/eda/edk_cadence/sky130_release_0.1.0/cells/diode_pw2nd_05v5/sky130_fd_pr__diode_pw2nd_05v5__extended_drain.model.spice
Reading file: 
        /home/eda/edk_cadence/sky130_release_0.1.0/cells/nfet_20v0_iso/sky130_fd_pr__nfet_20v0_iso__subcircuit.pm3.spice
Reading file: 
        /home/eda/edk_cadence/sky130_release_0.1.0/models/parasitics/sky130_fd_pr__model__parasitic__diode_ps2dn__extended_drain.model.spice
Reading file: 
        /home/eda/edk_cadence/sky130_release_0.1.0/cells/nfet_20v0_reverse_iso/sky130_fd_pr__nfet_20v0_reverse_iso__subcircuit.pm3.spice
Reading file: 
        /home/eda/edk_cadence/sky130_release_0.1.0/cells/nfet_20v0_zvt/sky130_fd_pr__nfet_20v0_zvt__tt_discrete.corner.spice
Reading file: 
        /home/eda/edk_cadence/sky130_release_0.1.0/cells/nfet_20v0_zvt/sky130_fd_pr__nfet_20v0_zvt__subcircuit.pm3.spice
Reading file: 
        /home/eda/edk_cadence/sky130_release_0.1.0/cells/nfet_20v0_zvt/sky130_fd_pr__nfet_20v0_zvt__parasitic__diode_ps2dn__extended_drain.model.spice
Reading file: 
        /home/eda/edk_cadence/sky130_release_0.1.0/cells/nfet_20v0_nvt/sky130_fd_pr__nfet_20v0_nvt__tt_discrete.corner.spice
Reading file: 
        /home/eda/edk_cadence/sky130_release_0.1.0/cells/nfet_20v0_nvt/sky130_fd_pr__nfet_20v0_nvt__subcircuit.pm3.spice
Reading file: 
        /home/eda/edk_cadence/sky130_release_0.1.0/cells/nfet_20v0_nvt/sky130_fd_pr__nfet_20v0_nvt__parasitic__diode_ps2dn.model.spice
Reading file: 
        /home/me59/bjt_amp_langgraph/seed_0_7f3a9c2e/trial_2/candidate.scs
Time for NDB Parsing: CPU = 720.773 ms, elapsed = 939.293 ms.
Time accumulated: CPU = 789.898 ms, elapsed = 939.299 ms.
Peak resident memory used = 87.3 Mbytes.

Time for Elaboration: CPU = 31.211 ms, elapsed = 31.2128 ms.
Time accumulated: CPU = 821.234 ms, elapsed = 970.633 ms.
Peak resident memory used = 99.4 Mbytes.


Time for EDB Visiting: CPU = 754 us, elapsed = 755.072 us.
Time accumulated: CPU = 822.103 ms, elapsed = 971.501 ms.
Peak resident memory used = 100 Mbytes.


Warning from spectre during initial setup.
    WARNING (CMI-2275): XDUT.XQ1.sky130_fd_pr__npn_05v5_W1p00L1p00__model:
        Temperature effects have made `rbm' less than `minr'.

Global user options:
             rawfmt = psfxl

Scoped user options:

Circuit inventory:
              nodes 6
                bjt 1     
          capacitor 4     
           resistor 3     
            vsource 3     

Analysis and control statement inventory:
               tran 1     

Output statements:
             .probe 0     
           .measure 0     
               save 1     

Time for parsing: CPU = 3.554 ms, elapsed = 11.452 ms.
Time accumulated: CPU = 825.748 ms, elapsed = 983.043 ms.
Peak resident memory used = 102 Mbytes.

~~~~~~~~~~~~~~~~~~~~~~
Pre-Simulation Summary
~~~~~~~~~~~~~~~~~~~~~~
~~~~~~~~~~~~~~~~~~~~~~

************************************************
Transient Analysis `tran': time = (0 s -> 20 ms)
************************************************
DC simulation time: CPU = 370 us, elapsed = 370.026 us.

Opening the PSFXL file
        /home/me59/bjt_amp_langgraph/seed_0_7f3a9c2e/trial_2/tran_psf/tran.tran.tran
        ...
Important parameter values:
    start = 0 s
    outputstart = 0 s
    stop = 20 ms
    step = 20 us
    maxstep = 1 us
    ic = all
    useprevic = no
    skipdc = no
    reltol = 1e-03
    abstol(V) = 1 uV
    abstol(I) = 1 pA
    temp = 27 C
    tnom = 27 C
    tempeffects = all
    errpreset = moderate
    method = traponly
    lteratio = 3.5
    relref = sigglobal
    cmin = 0 F
    gmin = 1 pS


Output and IC/nodeset summary:
                 save   1       (current)
                 save   2       (voltage)

......9......8......7......6......5......4......3......2......1......0
Number of accepted tran steps =             20000

Maximum value achieved for any signal of each quantity: 
V: V(VDD) = 5 V
I: I(VDD:p) = 159.1 uA
If your circuit contains signals of the same quantity that are vastly different
        in size (such as high voltage circuitry combined with low voltage
        control circuitry), you should consider specifying global option
        `bin_relref=yes'.

~~~~~~~~~~~~~~~~~~~~~~~~~~~~~~~~~
Post-Transient Simulation Summary
~~~~~~~~~~~~~~~~~~~~~~~~~~~~~~~~~
   -   To further speed up simulation, consider
          add ++aps on command line
   -   Non-default settings that could significantly slow down simulation
          maxstep = 1 us, default 400 us
~~~~~~~~~~~~~~~~~~~~~~~~~~~~~~~~~


During simulation, the CPU load for active processors is :
        Spectre  1 (1.8 %)       2 (1.8 %)       3 (4.4 %)       4 (27.2 %)
                 5 (1.8 %)       6 (1.8 %)       7 (3.5 %)       9 (88.6 %)
                11 (5.3 %)      12 (6.1 %)      13 (3.5 %)      15 (1.8 %)
                17 (1.8 %)      18 (3.5 %)      19 (3.5 %)      23 (100.0 %)
                24 (22.1 %)     26 (56.1 %)     36 (2.6 %)      39 (1.8 %)
                40 (9.7 %)      41 (1.8 %)      42 (3.5 %)      45 (7.0 %)
                47 (1.8 %)      48 (2.7 %)      51 (1.8 %)      52 (3.5 %)
                54 (1.8 %)      57 (14.3 %)     59 (5.3 %)      61 (3.5 %)
                62 (2.6 %)      64 (1.8 %)      65 (1.8 %)      66 (1.8 %)
                67 (1.8 %)      68 (4.5 %)      70 (4.4 %)      71 (4.4 %)
                72 (1.8 %)      73 (2.7 %)      74 (1.8 %)      75 (1.8 %)
        Other   
Initial condition solution time: CPU = 420 us, elapsed = 420.094 us.
Intrinsic tran analysis time:    CPU = 279.409 ms, elapsed = 282.556 ms.
Total time required for tran analysis `tran': CPU = 281.587 ms, elapsed =
        284.73 ms.
Time accumulated: CPU = 1.11454 s, elapsed = 1.27498 s.
Peak resident memory used = 106 Mbytes.


Aggregate audit (1:06:03 PM, Wed Jun 3, 2026):
Time used: CPU = 1.15 s, elapsed = 1.34 s, util. = 86.2%.
Time spent in licensing: elapsed = 118 ms, percentage of total = 8.81%.
Peak memory used = 106 Mbytes.
Simulation started at: 1:06:02 PM, Wed Jun 3, 2026, ended at: 1:06:03 PM, Wed
        Jun 3, 2026, with elapsed time (wall clock): 1.34 s.
spectre completes with 0 errors, 1 warning, and 1 notice.
COPYRIGHT (C) 1992-2024  CADENCE DESIGN SYSTEMS INC.  ALL RIGHTS RESERVED.
          (C) 1992-2024  UNIX SYSTEMS Laboratories INC.,
                         Reproduced with permission.

This Cadence Design Systems program and online documentation are
proprietary/confidential information and may be disclosed/used only
as authorized in a license agreement controlling such use and disclosure.

          RESTRICTED RIGHTS NOTICE (SHORT FORM)
Use/reproduction/disclosure is subject to restriction
set forth at FAR 1252.227-19 or its equivalent.
Loading geView.cxt 
Loading menuBuilder.cxt 
Loading schView.cxt 
Loading selectSv.cxt 
Loading wireEdit.cxt 
Loading pte2.cxt 
Loading xlUI.cxt 
Loading auCore.cxt 
Loading vhdl.cxt 
Loading seismic.cxt 
Loading ci.cxt 
Loading ams.cxt 
Loading adexlDM.cxt 
Loading cpf.cxt 
Loading cli.cxt 
Loading lp.cxt 
Virtuoso Framework License (111) was checked out successfully. Total checkout time was 0.08s.
Loading dal.cxt 
Loading awv.cxt 
Loading oasis.cxt 
Loading vdsil.cxt 
Loading analog.cxt 
Loading asimenv.cxt 
Loading spectrei.cxt 
Loading socket.cxt 
Loading par.cxt 
Loading alvs.cxt 
Loading caa.cxt 
Loading amps.cxt 
Loading adexlCore.cxt 
Loading adexl.cxt 
Loading lx.cxt 
Loading lce.cxt 
Loading le.cxt 
Loading drdEdit.cxt 
Loading rte.cxt 
Loading te.cxt 
Loading schHDL.cxt 
Loading devCheck.cxt 
Loading relXpert.cxt 
Loading simui.cxt 
Loading viva.cxt 
WARNING (PRINT-1048): Printing can become very slow because the data exceeds 10000 points. You can
             cancel this command and print the data to a file using the command v("VIN" ?resultsDir "/home/me59/bjt_amp_langgraph/seed_0_7f3a9c2e/trial_2/tran_psf" ?result "tran") v("VOUT" ?resultsDir "/home/me59/bjt_amp_langgraph/seed_0_7f3a9c2e/trial_2/tran_psf" ?result "tran") getData("VDD:p" ?resultsDir "/home/me59/bjt_amp_langgraph/seed_0_7f3a9c2e/trial_2/tran_psf" ?result "tran") ?output "./myOutFile" ?numberNotation 'none).

design: seed_0_7f3a9c2e_trial_2
area_total_p: 409.65
static_current_a: 0
power_dc_w: 0
power_dynamic_w: 0.0007950733754499983
power_score_basis_w: 0.000795073
ac_nrmse_db: 0.253779
midband_gain_db: 2.690
lower_3db_hz: 51.10710237028388
upper_3db_hz: 223850.01773423617
atten_low_rel_mid_db: -42.93544885312129
atten_high_rel_mid_db: -2.4233124905099186
tran_nrmse: 1.01557
vout_peak_to_peak_v: 0.003139
thd_db: -36.955
performance_nrmse_combined: 0.6346750406826629
