
Spectre (R) Circuit Simulator
Version 19.1.0.162.isr1 64bit -- 14 Oct 2019
Copyright (C) 1989-2019 Cadence Design Systems, Inc. All rights reserved worldwide. Cadence and Spectre are registered trademarks of Cadence Design Systems, Inc. All others are the property of their respective holders.

Includes RSA BSAFE(R) Cryptographic or Security Protocol Software from RSA Security, Inc.

User: me59   Host: dice   HostID: B4A34EA0   PID: 78558
Memory  available: 112.0463 GB  physical: 269.9321 GB
Linux   : CentOS Linux release 7.9.2009 (Core)
CPU Type: Intel(R) Xeon(R) Gold 6242R CPU @ 3.10GHz
        Socket: Processors [Frequency] (Hyperthreaded Processor)
        0:       0 [2199.9] ( 40 ),  1 [3100.0] ( 41 ),  2 [3799.9] ( 42 )
                 3 [2029.3] ( 43 ),  4 [3100.0] ( 44 ),  5 [2062.2] ( 45 )
                 6 [3099.8] ( 46 ),  7 [2705.9] ( 47 ),  8 [1303.3] ( 48 )
                 9 [1379.3] ( 49 ), 10 [1200.2] ( 50 ), 11 [2095.7] ( 51 )
                12 [1394.8] ( 52 ), 13 [1528.8] ( 53 ), 14 [1298.5] ( 54 )
                15 [1200.0] ( 55 ), 16 [1297.6] ( 56 ), 17 [1323.9] ( 57 )
                18 [1499.7] ( 58 ), 19 [1689.1] ( 59 )
        1:      20 [1200.0] ( 60 ), 21 [1200.3] ( 61 ), 22 [1748.1] ( 62 )
                23 [1881.9] ( 63 ), 24 [1299.9] ( 64 ), 25 [3799.9] ( 65 )
                26 [1282.8] ( 66 ), 27 [1568.7] ( 67 ), 28 [1360.0] ( 68 )
                29 [1352.8] ( 69 ), 30 [1324.3] ( 70 ), 31 [1272.4] ( 71 )
                32 [1200.0] ( 72 ), 33 [1997.9] ( 73 ), 34 [1200.0] ( 74 )
                35 [1200.2] ( 75 ), 36 [1200.0] ( 76 ), 37 [2094.7] ( 77 )
                38 [1200.2] ( 78 ), 39 [1200.2] ( 79 )
        
System load averages (1min, 5min, 15min) : 3.8 %, 3.4 %, 3.1 %
Hyperthreading is enabled


Simulating `/home/me59/amplifier_runner/baseline-v2p3-workflow-verify/run/tb_ac.scs' on dice at 2:35:40 PM, Mon Jun 8, 2026 (process id: 78558).
Current working directory: /home/me59/amplifier_runner/baseline-v2p3-workflow-verify/run
Command line:
    /home/eda/cadence/spectre191/tools.lnx86/bin/spectre -64  \
        /home/me59/amplifier_runner/baseline-v2p3-workflow-verify/run/tb_ac.scs  \
        +escchars +log  \
        /home/me59/amplifier_runner/baseline-v2p3-workflow-verify/run/spectre_ac.log  \
        -format psfxl -raw  \
        /home/me59/amplifier_runner/baseline-v2p3-workflow-verify/run/ac_psf  \
        +lqtimeout 60

Loading /home/eda/cadence/spectre191/tools.lnx86/cmi/lib/64bit/5.0/libinfineon_sh.so ...
Loading /home/eda/cadence/spectre191/tools.lnx86/cmi/lib/64bit/5.0/libphilips_o_sh.so ...
Loading /home/eda/cadence/spectre191/tools.lnx86/cmi/lib/64bit/5.0/libphilips_sh.so ...
Loading /home/eda/cadence/spectre191/tools.lnx86/cmi/lib/64bit/5.0/libsparam_sh.so ...
Loading /home/eda/cadence/spectre191/tools.lnx86/cmi/lib/64bit/5.0/libstmodels_sh.so ...
Reading file:  /home/me59/amplifier_runner/baseline-v2p3-workflow-verify/run/tb_ac.scs
Reading file:  /home/eda/cadence/spectre191/tools.lnx86/spectre/etc/configs/spectre.cfg
Reading file:  /home/eda/edk_cadence/sky130_release_0.1.0/models/sky130.lib.spice
Reading file:  /home/eda/edk_cadence/sky130_release_0.1.0/cells/nfet_01v8/sky130_fd_pr__nfet_01v8__tt.corner.spice
Reading file:  /home/eda/edk_cadence/sky130_release_0.1.0/cells/nfet_01v8/sky130_fd_pr__nfet_01v8__tt.pm3.spice
Reading file:  /home/eda/edk_cadence/sky130_release_0.1.0/cells/nfet_01v8_lvt/sky130_fd_pr__nfet_01v8_lvt__tt.corner.spice
Reading file:  /home/eda/edk_cadence/sky130_release_0.1.0/cells/nfet_01v8_lvt/sky130_fd_pr__nfet_01v8_lvt__tt.pm3.spice
Reading file:  /home/eda/edk_cadence/sky130_release_0.1.0/cells/pfet_01v8/sky130_fd_pr__pfet_01v8__tt.corner.spice
Reading file:  /home/eda/edk_cadence/sky130_release_0.1.0/cells/pfet_01v8/sky130_fd_pr__pfet_01v8__tt.pm3.spice
Reading file:  /home/eda/edk_cadence/sky130_release_0.1.0/cells/nfet_03v3_nvt/sky130_fd_pr__nfet_03v3_nvt__tt.corner.spice
Reading file:  /home/eda/edk_cadence/sky130_release_0.1.0/cells/nfet_03v3_nvt/sky130_fd_pr__nfet_03v3_nvt.pm3.spice
Reading file:  /home/eda/edk_cadence/sky130_release_0.1.0/cells/nfet_05v0_nvt/sky130_fd_pr__nfet_05v0_nvt__tt.corner.spice
Reading file:  /home/eda/edk_cadence/sky130_release_0.1.0/cells/nfet_05v0_nvt/sky130_fd_pr__nfet_05v0_nvt.pm3.spice
Reading file:  /home/eda/edk_cadence/sky130_release_0.1.0/cells/esd_nfet_01v8/sky130_fd_pr__esd_nfet_01v8__tt.corner.spice
Reading file:  /home/eda/edk_cadence/sky130_release_0.1.0/cells/esd_nfet_01v8/sky130_fd_pr__esd_nfet_01v8.pm3.spice
Reading file:  /home/eda/edk_cadence/sky130_release_0.1.0/cells/pfet_01v8_lvt/sky130_fd_pr__pfet_01v8_lvt__tt.corner.spice
Reading file:  /home/eda/edk_cadence/sky130_release_0.1.0/cells/pfet_01v8_lvt/sky130_fd_pr__pfet_01v8_lvt__tt.pm3.spice
Reading file:  /home/eda/edk_cadence/sky130_release_0.1.0/cells/pfet_01v8_hvt/sky130_fd_pr__pfet_01v8_hvt__tt.corner.spice
Reading file:  /home/eda/edk_cadence/sky130_release_0.1.0/cells/pfet_01v8_hvt/sky130_fd_pr__pfet_01v8_hvt__tt.pm3.spice
Reading file:  /home/eda/edk_cadence/sky130_release_0.1.0/cells/esd_pfet_g5v0d10v5/sky130_fd_pr__esd_pfet_g5v0d10v5__tt.corner.spice
Reading file:  /home/eda/edk_cadence/sky130_release_0.1.0/cells/esd_pfet_g5v0d10v5/sky130_fd_pr__esd_pfet_g5v0d10v5.pm3.spice
Reading file:  /home/eda/edk_cadence/sky130_release_0.1.0/cells/pfet_g5v0d10v5/sky130_fd_pr__pfet_g5v0d10v5__tt.corner.spice
Reading file:  /home/eda/edk_cadence/sky130_release_0.1.0/cells/pfet_g5v0d10v5/sky130_fd_pr__pfet_g5v0d10v5__tt.pm3.spice
Reading file:  /home/eda/edk_cadence/sky130_release_0.1.0/cells/pfet_g5v0d16v0/sky130_fd_pr__pfet_g5v0d16v0__tt.corner.spice
Reading file:  /home/eda/edk_cadence/sky130_release_0.1.0/cells/nfet_g5v0d10v5/sky130_fd_pr__nfet_g5v0d10v5__tt.corner.spice
Reading file:  /home/eda/edk_cadence/sky130_release_0.1.0/cells/nfet_g5v0d10v5/sky130_fd_pr__nfet_g5v0d10v5__tt.pm3.spice
Reading file:  /home/eda/edk_cadence/sky130_release_0.1.0/cells/nfet_g5v0d16v0/sky130_fd_pr__nfet_g5v0d16v0__tt_discrete.corner.spice
Reading file:  /home/eda/edk_cadence/sky130_release_0.1.0/cells/nfet_g5v0d16v0/sky130_fd_pr__nfet_g5v0d16v0__subcircuit.pm3.spice
Reading file:  /home/eda/edk_cadence/sky130_release_0.1.0/cells/nfet_g5v0d16v0/sky130_fd_pr__nfet_g5v0d16v0.pm3.spice
Reading file:  /home/eda/edk_cadence/sky130_release_0.1.0/cells/esd_nfet_g5v0d10v5/sky130_fd_pr__esd_nfet_g5v0d10v5__tt.corner.spice
Reading file:  /home/eda/edk_cadence/sky130_release_0.1.0/cells/esd_nfet_g5v0d10v5/sky130_fd_pr__esd_nfet_g5v0d10v5.pm3.spice
Reading file:  /home/eda/edk_cadence/sky130_release_0.1.0/models/corners/tt/nonfet.spice
Reading file:  /home/eda/edk_cadence/sky130_release_0.1.0/cells/nfet_01v8/sky130_fd_pr__nfet_01v8__mismatch.corner.spice
Reading file:  /home/eda/edk_cadence/sky130_release_0.1.0/cells/pfet_01v8/sky130_fd_pr__pfet_01v8__mismatch.corner.spice
Reading file:  /home/eda/edk_cadence/sky130_release_0.1.0/cells/nfet_01v8_lvt/sky130_fd_pr__nfet_01v8_lvt__mismatch.corner.spice
Reading file:  /home/eda/edk_cadence/sky130_release_0.1.0/cells/pfet_01v8_lvt/sky130_fd_pr__pfet_01v8_lvt__mismatch.corner.spice
Reading file:  /home/eda/edk_cadence/sky130_release_0.1.0/cells/pfet_01v8_hvt/sky130_fd_pr__pfet_01v8_hvt__mismatch.corner.spice
Reading file:  /home/eda/edk_cadence/sky130_release_0.1.0/cells/nfet_g5v0d10v5/sky130_fd_pr__nfet_g5v0d10v5__mismatch.corner.spice
Reading file:  /home/eda/edk_cadence/sky130_release_0.1.0/cells/pfet_g5v0d10v5/sky130_fd_pr__pfet_g5v0d10v5__mismatch.corner.spice
Reading file:  /home/eda/edk_cadence/sky130_release_0.1.0/cells/nfet_05v0_nvt/sky130_fd_pr__nfet_05v0_nvt__mismatch.corner.spice
Reading file:  /home/eda/edk_cadence/sky130_release_0.1.0/cells/nfet_03v3_nvt/sky130_fd_pr__nfet_03v3_nvt__mismatch.corner.spice
Reading file:  /home/eda/edk_cadence/sky130_release_0.1.0/models/r+c/res_typical__cap_typical.spice
Reading file:  /home/eda/edk_cadence/sky130_release_0.1.0/models/sky130_fd_pr__model__r+c.model.spice
Reading file:  /home/eda/edk_cadence/sky130_release_0.1.0/models/r+c.mrp1monte.spice
Reading file:  /home/eda/edk_cadence/sky130_release_0.1.0/cells/res_generic_nd/sky130_fd_pr__res_generic_nd.model.spice
Reading file:  /home/eda/edk_cadence/sky130_release_0.1.0/cells/res_generic_pd/sky130_fd_pr__res_generic_pd.model.spice
Reading file:  /home/eda/edk_cadence/sky130_release_0.1.0/models/parameters/typical.spice
Reading file:  /home/eda/edk_cadence/sky130_release_0.1.0/models/r+c/res_typical__cap_typical__lin.spice
Reading file:  /home/eda/edk_cadence/sky130_release_0.1.0/models/capacitors/sky130_fd_pr__model__cap_vpp.model.spice
Reading file:  /home/eda/edk_cadence/sky130_release_0.1.0/cells/cap_vpp_08p6x07p8_l1m1m2_noshield/sky130_fd_pr__cap_vpp_08p6x07p8_l1m1m2_noshield.model.spice
Reading file:  /home/eda/edk_cadence/sky130_release_0.1.0/cells/cap_vpp_04p4x04p6_l1m1m2_noshield/sky130_fd_pr__cap_vpp_04p4x04p6_l1m1m2_noshield.model.spice
Reading file:  /home/eda/edk_cadence/sky130_release_0.1.0/cells/cap_vpp_11p5x11p7_l1m1m2_noshield/sky130_fd_pr__cap_vpp_11p5x11p7_l1m1m2_noshield.model.spice
Reading file:  /home/eda/edk_cadence/sky130_release_0.1.0/cells/cap_vpp_01p8x01p8_m1m2_noshield/sky130_fd_pr__cap_vpp_01p8x01p8_m1m2_noshield.model.spice
Reading file:  /home/eda/edk_cadence/sky130_release_0.1.0/cells/cap_vpp_08p6x07p8_m1m2_shieldl1/sky130_fd_pr__cap_vpp_08p6x07p8_m1m2_shieldl1.model.spice
Reading file:  /home/eda/edk_cadence/sky130_release_0.1.0/cells/cap_vpp_04p4x04p6_m1m2_shieldl1/sky130_fd_pr__cap_vpp_04p4x04p6_m1m2_shieldl1.model.spice
Reading file:  /home/eda/edk_cadence/sky130_release_0.1.0/cells/cap_vpp_11p5x11p7_m1m2_shieldl1/sky130_fd_pr__cap_vpp_11p5x11p7_m1m2_shieldl1.model.spice
Reading file:  /home/eda/edk_cadence/sky130_release_0.1.0/cells/cap_vpp_08p6x07p8_l1m1m2_shieldpo_floatm3/sky130_fd_pr__cap_vpp_08p6x07p8_l1m1m2_shieldpo_floatm3.model.spice
Reading file:  /home/eda/edk_cadence/sky130_release_0.1.0/cells/cap_vpp_04p4x04p6_l1m1m2_shieldpo_floatm3/sky130_fd_pr__cap_vpp_04p4x04p6_l1m1m2_shieldpo_floatm3.model.spice
Reading file:  /home/eda/edk_cadence/sky130_release_0.1.0/cells/cap_vpp_11p5x11p7_l1m1m2_shieldpom3/sky130_fd_pr__cap_vpp_11p5x11p7_l1m1m2_shieldpom3.model.spice
Reading file:  /home/eda/edk_cadence/sky130_release_0.1.0/cells/cap_vpp_03p9x03p9_m1m2_shieldl1_floatm3/sky130_fd_pr__cap_vpp_03p9x03p9_m1m2_shieldl1_floatm3.model.spice
Reading file:  /home/eda/edk_cadence/sky130_release_0.1.0/cells/cap_vpp_04p4x04p6_l1m1m2_noshield/sky130_fd_pr__cap_vpp_04p4x04p6_l1m1m2_noshield_o1.model.spice
Reading file:  /home/eda/edk_cadence/sky130_release_0.1.0/cells/cap_vpp_08p6x07p8_m1m2_noshield/sky130_fd_pr__cap_vpp_08p6x07p8_m1m2_noshield.model.spice
Reading file:  /home/eda/edk_cadence/sky130_release_0.1.0/cells/cap_vpp_04p4x04p6_m1m2_noshield/sky130_fd_pr__cap_vpp_04p4x04p6_m1m2_noshield_o2.model.spice
Reading file:  /home/eda/edk_cadence/sky130_release_0.1.0/cells/cap_vpp_02p4x04p6_m1m2_noshield/sky130_fd_pr__cap_vpp_02p4x04p6_m1m2_noshield.model.spice
Reading file:  /home/eda/edk_cadence/sky130_release_0.1.0/cells/cap_vpp_04p4x04p6_m1m2_noshield/sky130_fd_pr__cap_vpp_04p4x04p6_m1m2_noshield.model.spice
Reading file:  /home/eda/edk_cadence/sky130_release_0.1.0/cells/cap_vpp_11p5x11p7_m1m2_noshield/sky130_fd_pr__cap_vpp_11p5x11p7_m1m2_noshield.model.spice
Reading file:  /home/eda/edk_cadence/sky130_release_0.1.0/cells/npn_05v5/sky130_fd_pr__npn_05v5__t.corner.spice
Reading file:  /home/eda/edk_cadence/sky130_release_0.1.0/cells/npn_05v5/sky130_fd_pr__npn_05v5_W1p00L1p00.model.spice
Reading file:  /home/eda/edk_cadence/sky130_release_0.1.0/cells/npn_05v5/sky130_fd_pr__npn_05v5_W1p00L2p00.model.spice
Reading file:  /home/eda/edk_cadence/sky130_release_0.1.0/cells/npn_11v0/sky130_fd_pr__npn_11v0_W1p00L1p00.model.spice
Reading file:  /home/eda/edk_cadence/sky130_release_0.1.0/cells/pnp_05v5/sky130_fd_pr__pnp_05v5_W3p40L3p40.model.spice
Reading file:  /home/eda/edk_cadence/sky130_release_0.1.0/models/corners/tt/specialized_cells.spice
Reading file:  /home/eda/edk_cadence/sky130_release_0.1.0/cells/special_nfet_latch/sky130_fd_pr__special_nfet_latch__mismatch.corner.spice
Reading file:  /home/eda/edk_cadence/sky130_release_0.1.0/cells/special_nfet_pass/sky130_fd_pr__special_nfet_pass__mismatch.corner.spice
Reading file:  /home/eda/edk_cadence/sky130_release_0.1.0/cells/special_nfet_pass_flash/sky130_fd_pr__special_nfet_pass_flash__mismatch.corner.spice
Reading file:  /home/eda/edk_cadence/sky130_release_0.1.0/cells/special_pfet_pass/sky130_fd_pr__special_pfet_pass__mismatch.corner.spice
Reading file:  /home/eda/edk_cadence/sky130_release_0.1.0/cells/special_nfet_pass_lvt/sky130_fd_pr__special_nfet_pass_lvt__tt.corner.spice
Reading file:  /home/eda/edk_cadence/sky130_release_0.1.0/cells/special_nfet_pass_lvt/sky130_fd_pr__special_nfet_pass_lvt.pm3.spice
Reading file:  /home/eda/edk_cadence/sky130_release_0.1.0/models/all.spice
Reading file:  /home/eda/edk_cadence/sky130_release_0.1.0/models/parameters/lod.spice
Reading file:  /home/eda/edk_cadence/sky130_release_0.1.0/models/parasitics/sky130_fd_pr__model__parasitic__diode_ps2nw.model.spice
Reading file:  /home/eda/edk_cadence/sky130_release_0.1.0/cells/diode_pw2nd_05v5/sky130_fd_pr__diode_pw2nd_05v5.model.spice
Reading file:  /home/eda/edk_cadence/sky130_release_0.1.0/cells/diode_pd2nw_05v5/sky130_fd_pr__diode_pd2nw_05v5.model.spice
Reading file:  /home/eda/edk_cadence/sky130_release_0.1.0/cells/diode_pd2nw_05v5_hvt/sky130_fd_pr__diode_pd2nw_05v5_hvt.model.spice
Reading file:  /home/eda/edk_cadence/sky130_release_0.1.0/cells/diode_pw2nd_11v0/sky130_fd_pr__diode_pw2nd_11v0.model.spice
Reading file:  /home/eda/edk_cadence/sky130_release_0.1.0/cells/diode_pd2nw_11v0/sky130_fd_pr__diode_pd2nw_11v0.model.spice
Reading file:  /home/eda/edk_cadence/sky130_release_0.1.0/cells/diode_pw2nd_05v5_nvt/sky130_fd_pr__diode_pw2nd_05v5_nvt.model.spice
Reading file:  /home/eda/edk_cadence/sky130_release_0.1.0/cells/diode_pw2nd_05v5_lvt/sky130_fd_pr__diode_pw2nd_05v5_lvt.model.spice
Reading file:  /home/eda/edk_cadence/sky130_release_0.1.0/cells/diode_pd2nw_05v5_lvt/sky130_fd_pr__diode_pd2nw_05v5_lvt.model.spice
Reading file:  /home/eda/edk_cadence/sky130_release_0.1.0/models/parasitics/sky130_fd_pr__model__parasitic__diode_pw2dn.model.spice
Reading file:  /home/eda/edk_cadence/sky130_release_0.1.0/models/parasitics/sky130_fd_pr__model__parasitic__diode_ps2dn.model.spice
Reading file:  /home/eda/edk_cadence/sky130_release_0.1.0/cells/pfet_g5v0d16v0/sky130_fd_pr__pfet_g5v0d16v0__parasitic__diode_pw2dn.model.spice
Reading file:  /home/eda/edk_cadence/sky130_release_0.1.0/cells/pnp_05v5/sky130_fd_pr__pnp_05v5_W0p68L0p68.model.spice
Reading file:  /home/eda/edk_cadence/sky130_release_0.1.0/cells/pfet_g5v0d16v0/sky130_fd_pr__pfet_g5v0d16v0.pm3.spice
Reading file:  /home/eda/edk_cadence/sky130_release_0.1.0/cells/pfet_g5v0d16v0/sky130_fd_pr__pfet_g5v0d16v0__subcircuit.pm3.spice
Reading file:  /home/eda/edk_cadence/sky130_release_0.1.0/cells/cap_var_lvt/sky130_fd_pr__cap_var_lvt.model.spice
Reading file:  /home/eda/edk_cadence/sky130_release_0.1.0/cells/cap_vpp_08p6x07p8_l1m1m2_noshield/sky130_fd_pr__cap_vpp_08p6x07p8_l1m1m2_noshield_o1.model.spice
Reading file:  /home/eda/edk_cadence/sky130_release_0.1.0/models/capacitors/sky130_fd_pr__model__cap_mim.model.spice
Reading file:  /home/eda/edk_cadence/sky130_release_0.1.0/cells/cap_mim_m3/sky130_fd_pr__cap_mim_m3_1.model.spice
Reading file:  /home/eda/edk_cadence/sky130_release_0.1.0/cells/cap_mim_m3/sky130_fd_pr__cap_mim_m3_2.model.spice
Reading file:  /home/eda/edk_cadence/sky130_release_0.1.0/models/capacitors/sky130_fd_pr__model__cap_vpp_only_mos.model.spice
Reading file:  /home/eda/edk_cadence/sky130_release_0.1.0/cells/cap_vpp_04p4x04p6_m1m2_noshield/sky130_fd_pr__cap_vpp_04p4x04p6_m1m2_noshield_o1nhv.model.spice
Reading file:  /home/eda/edk_cadence/sky130_release_0.1.0/cells/cap_vpp_04p4x04p6_m1m2_noshield/sky130_fd_pr__cap_vpp_04p4x04p6_m1m2_noshield_o1phv.model.spice
Reading file:  /home/eda/edk_cadence/sky130_release_0.1.0/models/sonos_p/begin_of_life/mm.spice
Reading file:  /home/eda/edk_cadence/sky130_release_0.1.0/models/sonos_e/begin_of_life/mm.spice
Reading file:  /home/eda/edk_cadence/sky130_release_0.1.0/models/head.spice
Reading file:  /home/eda/edk_cadence/sky130_release_0.1.0/cells/special_nfet_pass/sky130_fd_pr__special_nfet_pass.pm3.spice
Reading file:  /home/eda/edk_cadence/sky130_release_0.1.0/cells/special_nfet_latch/sky130_fd_pr__special_nfet_latch.pm3.spice
Reading file:  /home/eda/edk_cadence/sky130_release_0.1.0/cells/special_pfet_pass/sky130_fd_pr__special_pfet_pass.pm3.spice
Reading file:  /home/eda/edk_cadence/sky130_release_0.1.0/cells/special_nfet_pass_flash/sky130_fd_pr__special_nfet_pass_flash.pm3.spice
Reading file:  /home/eda/edk_cadence/sky130_release_0.1.0/models/capacitors/sky130_fd_pr__model__cap_vpp_only_pq.model.spice
Reading file:  /home/eda/edk_cadence/sky130_release_0.1.0/cells/cap_vpp_08p6x07p8_m1m2m3_shieldl1/sky130_fd_pr__cap_vpp_08p6x07p8_m1m2m3_shieldl1.model.spice
Reading file:  /home/eda/edk_cadence/sky130_release_0.1.0/cells/cap_vpp_04p4x04p6_m1m2m3_shieldl1/sky130_fd_pr__cap_vpp_04p4x04p6_m1m2m3_shieldl1.model.spice
Reading file:  /home/eda/edk_cadence/sky130_release_0.1.0/cells/cap_vpp_11p5x11p7_m1m2m3_shieldl1/sky130_fd_pr__cap_vpp_11p5x11p7_m1m2m3_shieldl1.model.spice
Reading file:  /home/eda/edk_cadence/sky130_release_0.1.0/cells/cap_vpp_11p5x11p7_l1m1m2m3_shieldm4/sky130_fd_pr__cap_vpp_11p5x11p7_l1m1m2m3_shieldm4.model.spice
Reading file:  /home/eda/edk_cadence/sky130_release_0.1.0/cells/cap_vpp_11p5x11p7_l1m1m2m3_shieldpom4/sky130_fd_pr__cap_vpp_11p5x11p7_l1m1m2m3_shieldpom4.model.spice
Reading file:  /home/eda/edk_cadence/sky130_release_0.1.0/cells/cap_vpp_06p8x06p1_l1m1m2m3_shieldpom4/sky130_fd_pr__cap_vpp_06p8x06p1_l1m1m2m3_shieldpom4.model.spice
Reading file:  /home/eda/edk_cadence/sky130_release_0.1.0/cells/cap_vpp_06p8x06p1_m1m2m3_shieldl1m4/sky130_fd_pr__cap_vpp_06p8x06p1_m1m2m3_shieldl1m4.model.spice
Reading file:  /home/eda/edk_cadence/sky130_release_0.1.0/models/capacitors/sky130_fd_pr__model__cap_vpp_only_p.model.spice
Reading file:  /home/eda/edk_cadence/sky130_release_0.1.0/cells/cap_vpp_11p5x11p7_l1m1m2m3m4_shieldm5/sky130_fd_pr__cap_vpp_11p5x11p7_l1m1m2m3m4_shieldm5.model.spice
Reading file:  /home/eda/edk_cadence/sky130_release_0.1.0/cells/cap_vpp_11p5x11p7_l1m1m2m3m4_shieldpom5/sky130_fd_pr__cap_vpp_11p5x11p7_l1m1m2m3m4_shieldpom5.model.spice
Reading file:  /home/eda/edk_cadence/sky130_release_0.1.0/cells/cap_vpp_11p5x11p7_m1m2m3m4_shieldl1m5/sky130_fd_pr__cap_vpp_11p5x11p7_m1m2m3m4_shieldl1m5.model.spice
Reading file:  /home/eda/edk_cadence/sky130_release_0.1.0/cells/cap_vpp_11p5x11p7_m1m4_noshield/sky130_fd_pr__cap_vpp_11p5x11p7_m1m4_noshield.model.spice
Reading file:  /home/eda/edk_cadence/sky130_release_0.1.0/cells/cap_vpp_11p5x11p7_m1m2m3m4_shieldm5/sky130_fd_pr__cap_vpp_11p5x11p7_m1m2m3m4_shieldm5.model.spice
Reading file:  /home/eda/edk_cadence/sky130_release_0.1.0/cells/cap_vpp_08p6x07p8_m1m2m3_shieldl1m5_floatm4/sky130_fd_pr__cap_vpp_08p6x07p8_m1m2m3_shieldl1m5_floatm4.model.spice
Reading file:  /home/eda/edk_cadence/sky130_release_0.1.0/cells/cap_vpp_04p4x04p6_m1m2m3_shieldl1m5_floatm4/sky130_fd_pr__cap_vpp_04p4x04p6_m1m2m3_shieldl1m5_floatm4.model.spice
Reading file:  /home/eda/edk_cadence/sky130_release_0.1.0/cells/cap_vpp_11p5x11p7_m1m2m3_shieldl1m5_floatm4/sky130_fd_pr__cap_vpp_11p5x11p7_m1m2m3_shieldl1m5_floatm4.model.spice
Reading file:  /home/eda/edk_cadence/sky130_release_0.1.0/cells/cap_vpp_11p3x11p8_l1m1m2m3m4_shieldm5/sky130_fd_pr__cap_vpp_11p3x11p8_l1m1m2m3m4_shieldm5_nhv.model.spice
Reading file:  /home/eda/edk_cadence/sky130_release_0.1.0/cells/cap_vpp_11p3x11p8_l1m1m2m3m4_shieldm5/sky130_fd_pr__cap_vpp_11p3x11p8_l1m1m2m3m4_shieldm5_nhv__base.model.spice
Reading file:  /home/eda/edk_cadence/sky130_release_0.1.0/cells/cap_vpp_11p5x11p7_l1m1m2m3m4_shieldpom5/sky130_fd_pr__cap_vpp_11p5x11p7_l1m1m2m3m4_shieldpom5_x.model.spice
Reading file:  /home/eda/edk_cadence/sky130_release_0.1.0/cells/cap_vpp_02p9x06p1_m1m2m3m4_shieldl1/sky130_fd_pr__cap_vpp_02p9x06p1_m1m2m3m4_shieldl1_fingercap2.model.spice
Reading file:  /home/eda/edk_cadence/sky130_release_0.1.0/cells/cap_vpp_02p7x11p1_m1m2m3m4_shieldl1/sky130_fd_pr__cap_vpp_02p7x11p1_m1m2m3m4_shieldl1_fingercap.model.spice
Reading file:  /home/eda/edk_cadence/sky130_release_0.1.0/cells/cap_vpp_02p7x21p1_m1m2m3m4_shieldl1/sky130_fd_pr__cap_vpp_02p7x21p1_m1m2m3m4_shieldl1_fingercap.model.spice
Reading file:  /home/eda/edk_cadence/sky130_release_0.1.0/cells/cap_vpp_02p7x41p1_m1m2m3m4_shieldl1/sky130_fd_pr__cap_vpp_02p7x41p1_m1m2m3m4_shieldl1_fingercap.model.spice
Reading file:  /home/eda/edk_cadence/sky130_release_0.1.0/cells/cap_vpp_02p7x06p1_m1m2m3m4_shieldl1/sky130_fd_pr__cap_vpp_02p7x06p1_m1m2m3m4_shieldl1_fingercap.model.spice
Reading file:  /home/eda/edk_cadence/sky130_release_0.1.0/cells/cap_vpp_11p3x11p3_m1m2m3m4_shieldl1/sky130_fd_pr__cap_vpp_11p3x11p3_m1m2m3m4_shieldl1_wafflecap.model.spice
Reading file:  /home/eda/edk_cadence/sky130_release_0.1.0/cells/cap_vpp_05p9x05p9_m1m2m3m4_shieldl1/sky130_fd_pr__cap_vpp_05p9x05p9_m1m2m3m4_shieldl1_wafflecap.model.spice
Reading file:  /home/eda/edk_cadence/sky130_release_0.1.0/cells/cap_vpp_44p7x23p1_pol1m1m2m3m4m5_noshield/sky130_fd_pr__cap_vpp_44p7x23p1_pol1m1m2m3m4m5_noshield.model.spice
Reading file:  /home/eda/edk_cadence/sky130_release_0.1.0/models/sky130_fd_pr__model__linear.model.spice
Reading file:  /home/eda/edk_cadence/sky130_release_0.1.0/models/parasitics/sky130_fd_pr__model__parasitic__res_po.model.spice
Reading file:  /home/eda/edk_cadence/sky130_release_0.1.0/cells/res_xhigh_po/sky130_fd_pr__res_xhigh_po.model.spice
Reading file:  /home/eda/edk_cadence/sky130_release_0.1.0/cells/res_high_po/sky130_fd_pr__res_high_po.model.spice
Reading file:  /home/eda/edk_cadence/sky130_release_0.1.0/cells/res_xhigh_po/sky130_fd_pr__res_xhigh_po_0p35.model.spice
Reading file:  /home/eda/edk_cadence/sky130_release_0.1.0/cells/res_xhigh_po/sky130_fd_pr__res_xhigh_po_0p69.model.spice
Reading file:  /home/eda/edk_cadence/sky130_release_0.1.0/cells/res_xhigh_po/sky130_fd_pr__res_xhigh_po_1p41.model.spice
Reading file:  /home/eda/edk_cadence/sky130_release_0.1.0/cells/res_xhigh_po/sky130_fd_pr__res_xhigh_po_2p85.model.spice
Reading file:  /home/eda/edk_cadence/sky130_release_0.1.0/cells/res_xhigh_po/sky130_fd_pr__res_xhigh_po_5p73.model.spice
Reading file:  /home/eda/edk_cadence/sky130_release_0.1.0/cells/res_xhigh_po/sky130_fd_pr__res_xhigh_po__base.model.spice
Reading file:  /home/eda/edk_cadence/sky130_release_0.1.0/cells/res_high_po/sky130_fd_pr__res_high_po_0p35.model.spice
Reading file:  /home/eda/edk_cadence/sky130_release_0.1.0/cells/res_high_po/sky130_fd_pr__res_high_po_0p69.model.spice
Reading file:  /home/eda/edk_cadence/sky130_release_0.1.0/cells/res_high_po/sky130_fd_pr__res_high_po_1p41.model.spice
Reading file:  /home/eda/edk_cadence/sky130_release_0.1.0/cells/res_high_po/sky130_fd_pr__res_high_po_2p85.model.spice
Reading file:  /home/eda/edk_cadence/sky130_release_0.1.0/cells/res_high_po/sky130_fd_pr__res_high_po_5p73.model.spice
Reading file:  /home/eda/edk_cadence/sky130_release_0.1.0/cells/rf_nfet_g5v0d10v5/sky130_fd_pr__rf_nfet_g5v0d10v5.pm3.spice
Reading file:  /home/eda/edk_cadence/sky130_release_0.1.0/cells/rf_nfet_01v8_lvt/sky130_fd_pr__rf_nfet_01v8_lvt.pm3.spice
Reading file:  /home/eda/edk_cadence/sky130_release_0.1.0/cells/rf_nfet_01v8/sky130_fd_pr__rf_nfet_01v8.pm3.spice
Reading file:  /home/eda/edk_cadence/sky130_release_0.1.0/cells/rf_pfet_01v8/sky130_fd_pr__rf_pfet_01v8.pm3.spice
Reading file:  /home/eda/edk_cadence/sky130_release_0.1.0/cells/rf_pfet_01v8_mvt/sky130_fd_pr__rf_pfet_01v8_mvt.pm3.spice
Reading file:  /home/eda/edk_cadence/sky130_release_0.1.0/models/corners/tt/rf.spice
Reading file:  /home/eda/edk_cadence/sky130_release_0.1.0/cells/rf_nfet_01v8/sky130_fd_pr__rf_nfet_01v8_b__tt.corner.spice
Reading file:  /home/eda/edk_cadence/sky130_release_0.1.0/cells/rf_nfet_01v8/sky130_fd_pr__rf_nfet_01v8_b.pm3.spice
Reading file:  /home/eda/edk_cadence/sky130_release_0.1.0/cells/rf_nfet_01v8_lvt/sky130_fd_pr__rf_nfet_01v8_lvt_b__tt.corner.spice
Reading file:  /home/eda/edk_cadence/sky130_release_0.1.0/cells/rf_nfet_01v8_lvt/sky130_fd_pr__rf_nfet_01v8_lvt_b.pm3.spice
Reading file:  /home/eda/edk_cadence/sky130_release_0.1.0/cells/rf_nfet_g5v0d10v5/sky130_fd_pr__rf_nfet_g5v0d10v5_b__tt.corner.spice
Reading file:  /home/eda/edk_cadence/sky130_release_0.1.0/cells/rf_nfet_g5v0d10v5/sky130_fd_pr__rf_nfet_g5v0d10v5_b.pm3.spice
Reading file:  /home/eda/edk_cadence/sky130_release_0.1.0/cells/rf_pfet_01v8/sky130_fd_pr__rf_pfet_01v8_b__tt.corner.spice
Reading file:  /home/eda/edk_cadence/sky130_release_0.1.0/cells/rf_pfet_01v8/sky130_fd_pr__rf_pfet_01v8_b.pm3.spice
Reading file:  /home/eda/edk_cadence/sky130_release_0.1.0/cells/rf_nfet_01v8/sky130_fd_pr__rf_nfet_01v8__mismatch.corner.spice
Reading file:  /home/eda/edk_cadence/sky130_release_0.1.0/cells/rf_nfet_01v8_lvt/sky130_fd_pr__rf_nfet_01v8_lvt__mismatch.corner.spice
Reading file:  /home/eda/edk_cadence/sky130_release_0.1.0/cells/rf_nfet_g5v0d10v5/sky130_fd_pr__rf_nfet_g5v0d10v5__mismatch.corner.spice
Reading file:  /home/eda/edk_cadence/sky130_release_0.1.0/cells/rf_pfet_01v8/sky130_fd_pr__rf_pfet_01v8__mismatch.corner.spice
Reading file:  /home/eda/edk_cadence/sky130_release_0.1.0/cells/rf_pfet_01v8_mvt/sky130_fd_pr__rf_pfet_01v8_mvt__tt_discrete.corner.spice
Reading file:  /home/eda/edk_cadence/sky130_release_0.1.0/cells/pfet_01v8_mvt/sky130_fd_pr__pfet_01v8_mvt.pm3.spice
Reading file:  /home/eda/edk_cadence/sky130_release_0.1.0/cells/rf_pfet_01v8_mvt/sky130_fd_pr__rf_pfet_01v8_mvt__mismatch.corner.spice
Reading file:  /home/eda/edk_cadence/sky130_release_0.1.0/cells/pfet_20v0/sky130_fd_pr__pfet_20v0__tt_discrete.corner.spice
Reading file:  /home/eda/edk_cadence/sky130_release_0.1.0/cells/pfet_20v0/sky130_fd_pr__pfet_20v0__subcircuit.pm3.spice
Reading file:  /home/eda/edk_cadence/sky130_release_0.1.0/cells/pfet_20v0/sky130_fd_pr__pfet_20v0__parasitic__diode_pw2dn.model.spice
Reading file:  /home/eda/edk_cadence/sky130_release_0.1.0/cells/nfet_20v0/sky130_fd_pr__nfet_20v0__tt_discrete.corner.spice
Reading file:  /home/eda/edk_cadence/sky130_release_0.1.0/cells/nfet_20v0/sky130_fd_pr__nfet_20v0__subcircuit.pm3.spice
Reading file:  /home/eda/edk_cadence/sky130_release_0.1.0/models/parasitics/sky130_fd_pr__model__parasitic__diode_pw2dn__extended_drain.model.spice
Reading file:  /home/eda/edk_cadence/sky130_release_0.1.0/cells/diode_pw2nd_05v5/sky130_fd_pr__diode_pw2nd_05v5__extended_drain.model.spice
Reading file:  /home/eda/edk_cadence/sky130_release_0.1.0/cells/nfet_20v0_iso/sky130_fd_pr__nfet_20v0_iso__subcircuit.pm3.spice
Reading file:  /home/eda/edk_cadence/sky130_release_0.1.0/models/parasitics/sky130_fd_pr__model__parasitic__diode_ps2dn__extended_drain.model.spice
Reading file:  /home/eda/edk_cadence/sky130_release_0.1.0/cells/nfet_20v0_reverse_iso/sky130_fd_pr__nfet_20v0_reverse_iso__subcircuit.pm3.spice
Reading file:  /home/eda/edk_cadence/sky130_release_0.1.0/cells/nfet_20v0_zvt/sky130_fd_pr__nfet_20v0_zvt__tt_discrete.corner.spice
Reading file:  /home/eda/edk_cadence/sky130_release_0.1.0/cells/nfet_20v0_zvt/sky130_fd_pr__nfet_20v0_zvt__subcircuit.pm3.spice
Reading file:  /home/eda/edk_cadence/sky130_release_0.1.0/cells/nfet_20v0_zvt/sky130_fd_pr__nfet_20v0_zvt__parasitic__diode_ps2dn__extended_drain.model.spice
Reading file:  /home/eda/edk_cadence/sky130_release_0.1.0/cells/nfet_20v0_nvt/sky130_fd_pr__nfet_20v0_nvt__tt_discrete.corner.spice
Reading file:  /home/eda/edk_cadence/sky130_release_0.1.0/cells/nfet_20v0_nvt/sky130_fd_pr__nfet_20v0_nvt__subcircuit.pm3.spice
Reading file:  /home/eda/edk_cadence/sky130_release_0.1.0/cells/nfet_20v0_nvt/sky130_fd_pr__nfet_20v0_nvt__parasitic__diode_ps2dn.model.spice
Reading file:  /home/me59/amplifier_runner/baseline-v2p3-workflow-verify/dummy_neural_amp.scs
Reading file:  /home/me59/amplifier_runner/baseline-v2p3-workflow-verify/dummy_neural_amp.va
Reading file:  /home/eda/cadence/spectre191/tools.lnx86/spectre/etc/ahdl/constants.vams
Reading file:  /home/eda/cadence/spectre191/tools.lnx86/spectre/etc/ahdl/disciplines.vams
Time for NDB Parsing: CPU = 714.846 ms, elapsed = 918.553 ms.
Time accumulated: CPU = 781.06 ms, elapsed = 918.562 ms.
Peak resident memory used = 89.2 Mbytes.

Created directory tb_ac.ahdlSimDB/ (775)
Created directory tb_ac.ahdlSimDB//b4c27084336035653850d0391f6d843e.dummy_neural_amp_va.ahdlcmi/ (775)
Created directory tb_ac.ahdlSimDB//b4c27084336035653850d0391f6d843e.dummy_neural_amp_va.ahdlcmi/Linux-64/ (775)
Compiling ahdlcmi module library for dummy_neural_amp_va.
Finished compilation in 1.16 s (elapsed) for dummy_neural_amp_va.
Installed compiled interface for dummy_neural_amp_va.
Time for Elaboration: CPU = 94.236 ms, elapsed = 1.25682 s.
Time accumulated: CPU = 875.43 ms, elapsed = 2.17551 s.
Peak resident memory used = 109 Mbytes.


Time for EDB Visiting: CPU = 1.664 ms, elapsed = 1.66583 ms.
Time accumulated: CPU = 877.347 ms, elapsed = 2.17743 s.
Peak resident memory used = 109 Mbytes.


Notice from spectre during initial setup.
    Ignorevaref=yes is ignored since all nodes are connected to Verilog-A modules.


Global user options:
             rawfmt = psfxl

Scoped user options:

Circuit inventory:
              nodes 4
          capacitor 1     
dummy_neural_amp_va 1     
            vsource 3     

Analysis and control statement inventory:
                 ac 1     

Output statements:
             .probe 0     
           .measure 0     
               save 1     

Time for parsing: CPU = 7.554 ms, elapsed = 83.086 ms.
Time accumulated: CPU = 885.094 ms, elapsed = 2.26071 s.
Peak resident memory used = 111 Mbytes.

~~~~~~~~~~~~~~~~~~~~~~
Pre-Simulation Summary
~~~~~~~~~~~~~~~~~~~~~~
~~~~~~~~~~~~~~~~~~~~~~

********************************************
AC Analysis `ac': freq = (100 mHz -> 10 MHz)
********************************************
DC simulation time: CPU = 661 us, elapsed = 660.896 us.

Opening the PSF file /home/me59/amplifier_runner/baseline-v2p3-workflow-verify/run/ac_psf/ac.ac ...
......9......8......7......6......5......4......3......2......1......0
Accumulated DC solution time =            0 s.
Intrinsic ac analysis time =              0 s.
Total time required for ac analysis `ac': CPU = 10.249 ms, elapsed = 23.8879 ms.
Time accumulated: CPU = 906.094 ms, elapsed = 2.29535 s.
Peak resident memory used = 113 Mbytes.


Aggregate audit (2:35:42 PM, Mon Jun 8, 2026):
Time used: CPU = 969 ms, elapsed = 2.37 s, util. = 40.9%.
Time spent in licensing: elapsed = 134 ms, percentage of total = 5.67%.
Peak memory used = 113 Mbytes.
Simulation started at: 2:35:40 PM, Mon Jun 8, 2026, ended at: 2:35:42 PM, Mon Jun 8, 2026, with elapsed time (wall clock): 2.37 s.
spectre completes with 0 errors, 0 warnings, and 2 notices.
