
Spectre (R) Circuit Simulator
Version 19.1.0.162.isr1 64bit -- 14 Oct 2019
Copyright (C) 1989-2019 Cadence Design Systems, Inc. All rights reserved worldwide. Cadence and Spectre are registered trademarks of Cadence Design Systems, Inc. All others are the property of their respective holders.

Includes RSA BSAFE(R) Cryptographic or Security Protocol Software from RSA Security, Inc.

User: me59   Host: dice   HostID: B4A34EA0   PID: 171330
Memory  available: 140.3120 GB  physical: 269.9321 GB
Linux   : CentOS Linux release 7.9.2009 (Core)
CPU Type: Intel(R) Xeon(R) Gold 6242R CPU @ 3.10GHz
        Socket: Processors [Frequency] (Hyperthreaded Processor)
        0:       0 [1548.1] ( 40 ),  1 [1200.5] ( 41 ),  2 [1291.9] ( 42 )
                 3 [1416.8] ( 43 ),  4 [1219.8] ( 44 ),  5 [1200.5] ( 45 )
                 6 [1835.7] ( 46 ),  7 [1200.0] ( 47 ),  8 [1698.9] ( 48 )
                 9 [1238.9] ( 49 ), 10 [1200.2] ( 50 ), 11 [1509.1] ( 51 )
                12 [1384.6] ( 52 ), 13 [1200.0] ( 53 ), 14 [1200.0] ( 54 )
                15 [1298.7] ( 55 ), 16 [1207.2] ( 56 ), 17 [1200.0] ( 57 )
                18 [1208.3] ( 58 ), 19 [1268.1] ( 59 )
        1:      20 [1294.2] ( 60 ), 21 [1661.1] ( 61 ), 22 [1600.0] ( 62 )
                23 [1798.2] ( 63 ), 24 [3100.0] ( 64 ), 25 [1364.8] ( 65 )
                26 [1499.9] ( 66 ), 27 [1200.0] ( 67 ), 28 [3799.9] ( 68 )
                29 [1200.0] ( 69 ), 30 [1200.0] ( 70 ), 31 [1248.6] ( 71 )
                32 [1200.0] ( 72 ), 33 [1382.9] ( 73 ), 34 [1235.3] ( 74 )
                35 [1299.9] ( 75 ), 36 [1200.0] ( 76 ), 37 [1296.3] ( 77 )
                38 [1200.0] ( 78 ), 39 [1200.0] ( 79 )
        
System load averages (1min, 5min, 15min) : 2.1 %, 2.4 %, 2.3 %
Hyperthreading is enabled


Simulating `/home/me59/bjt_amp_langgraph/seed_0_a91c4f2e_fixed/trial_0/tb_ac.scs' on dice at 2:10:45 PM, Wed Jun 3, 2026 (process id: 171330).
Current working directory: /home/me59/bjt_amp_langgraph/seed_0_a91c4f2e_fixed/trial_0
Command line:
    /home/eda/cadence/spectre191/tools.lnx86/bin/spectre -64  \
        /home/me59/bjt_amp_langgraph/seed_0_a91c4f2e_fixed/trial_0/tb_ac.scs  \
        +escchars +log  \
        /home/me59/bjt_amp_langgraph/seed_0_a91c4f2e_fixed/trial_0/spectre_ac.log  \
        -format psfxl -raw  \
        /home/me59/bjt_amp_langgraph/seed_0_a91c4f2e_fixed/trial_0/ac_psf  \
        +lqtimeout 60

Loading /home/eda/cadence/spectre191/tools.lnx86/cmi/lib/64bit/5.0/libinfineon_sh.so ...
Loading /home/eda/cadence/spectre191/tools.lnx86/cmi/lib/64bit/5.0/libphilips_o_sh.so ...
Loading /home/eda/cadence/spectre191/tools.lnx86/cmi/lib/64bit/5.0/libphilips_sh.so ...
Loading /home/eda/cadence/spectre191/tools.lnx86/cmi/lib/64bit/5.0/libsparam_sh.so ...
Loading /home/eda/cadence/spectre191/tools.lnx86/cmi/lib/64bit/5.0/libstmodels_sh.so ...
Reading file:  /home/me59/bjt_amp_langgraph/seed_0_a91c4f2e_fixed/trial_0/tb_ac.scs
Reading file:  /home/eda/cadence/spectre191/tools.lnx86/spectre/etc/configs/spectre.cfg
Reading file:  /home/eda/edk_cadence/sky130_release_0.1.0/models/sky130.lib.spice
Reading file:  /home/eda/edk_cadence/sky130_release_0.1.0/cells/nfet_01v8/sky130_fd_pr__nfet_01v8__tt.corner.spice
Reading file:  /home/eda/edk_cadence/sky130_release_0.1.0/cells/nfet_01v8/sky130_fd_pr__nfet_01v8__tt.pm3.spice
Reading file:  /home/eda/edk_cadence/sky130_release_0.1.0/cells/nfet_01v8_lvt/sky130_fd_pr__nfet_01v8_lvt__tt.corner.spice
Reading file:  /home/eda/edk_cadence/sky130_release_0.1.0/cells/nfet_01v8_lvt/sky130_fd_pr__nfet_01v8_lvt__tt.pm3.spice
Reading file:  /home/eda/edk_cadence/sky130_release_0.1.0/cells/pfet_01v8/sky130_fd_pr__pfet_01v8__tt.corner.spice
Reading file:  /home/eda/edk_cadence/sky130_release_0.1.0/cells/pfet_01v8/sky130_fd_pr__pfet_01v8__tt.pm3.spice
Reading file:  /home/eda/edk_cadence/sky130_release_0.1.0/cells/nfet_03v3_nvt/sky130_fd_pr__nfet_03v3_nvt__tt.corner.spice
Reading file:  /home/eda/edk_cadence/sky130_release_0.1.0/cells/nfet_03v3_nvt/sky130_fd_pr__nfet_03v3_nvt.pm3.spice
Reading file:  /home/eda/edk_cadence/sky130_release_0.1.0/cells/nfet_05v0_nvt/sky130_fd_pr__nfet_05v0_nvt__tt.corner.spice
Reading file:  /home/eda/edk_cadence/sky130_release_0.1.0/cells/nfet_05v0_nvt/sky130_fd_pr__nfet_05v0_nvt.pm3.spice
Reading file:  /home/eda/edk_cadence/sky130_release_0.1.0/cells/esd_nfet_01v8/sky130_fd_pr__esd_nfet_01v8__tt.corner.spice
Reading file:  /home/eda/edk_cadence/sky130_release_0.1.0/cells/esd_nfet_01v8/sky130_fd_pr__esd_nfet_01v8.pm3.spice
Reading file:  /home/eda/edk_cadence/sky130_release_0.1.0/cells/pfet_01v8_lvt/sky130_fd_pr__pfet_01v8_lvt__tt.corner.spice
Reading file:  /home/eda/edk_cadence/sky130_release_0.1.0/cells/pfet_01v8_lvt/sky130_fd_pr__pfet_01v8_lvt__tt.pm3.spice
Reading file:  /home/eda/edk_cadence/sky130_release_0.1.0/cells/pfet_01v8_hvt/sky130_fd_pr__pfet_01v8_hvt__tt.corner.spice
Reading file:  /home/eda/edk_cadence/sky130_release_0.1.0/cells/pfet_01v8_hvt/sky130_fd_pr__pfet_01v8_hvt__tt.pm3.spice
Reading file:  /home/eda/edk_cadence/sky130_release_0.1.0/cells/esd_pfet_g5v0d10v5/sky130_fd_pr__esd_pfet_g5v0d10v5__tt.corner.spice
Reading file:  /home/eda/edk_cadence/sky130_release_0.1.0/cells/esd_pfet_g5v0d10v5/sky130_fd_pr__esd_pfet_g5v0d10v5.pm3.spice
Reading file:  /home/eda/edk_cadence/sky130_release_0.1.0/cells/pfet_g5v0d10v5/sky130_fd_pr__pfet_g5v0d10v5__tt.corner.spice
Reading file:  /home/eda/edk_cadence/sky130_release_0.1.0/cells/pfet_g5v0d10v5/sky130_fd_pr__pfet_g5v0d10v5__tt.pm3.spice
Reading file:  /home/eda/edk_cadence/sky130_release_0.1.0/cells/pfet_g5v0d16v0/sky130_fd_pr__pfet_g5v0d16v0__tt.corner.spice
Reading file:  /home/eda/edk_cadence/sky130_release_0.1.0/cells/nfet_g5v0d10v5/sky130_fd_pr__nfet_g5v0d10v5__tt.corner.spice
Reading file:  /home/eda/edk_cadence/sky130_release_0.1.0/cells/nfet_g5v0d10v5/sky130_fd_pr__nfet_g5v0d10v5__tt.pm3.spice
Reading file:  /home/eda/edk_cadence/sky130_release_0.1.0/cells/nfet_g5v0d16v0/sky130_fd_pr__nfet_g5v0d16v0__tt_discrete.corner.spice
Reading file:  /home/eda/edk_cadence/sky130_release_0.1.0/cells/nfet_g5v0d16v0/sky130_fd_pr__nfet_g5v0d16v0__subcircuit.pm3.spice
Reading file:  /home/eda/edk_cadence/sky130_release_0.1.0/cells/nfet_g5v0d16v0/sky130_fd_pr__nfet_g5v0d16v0.pm3.spice
Reading file:  /home/eda/edk_cadence/sky130_release_0.1.0/cells/esd_nfet_g5v0d10v5/sky130_fd_pr__esd_nfet_g5v0d10v5__tt.corner.spice
Reading file:  /home/eda/edk_cadence/sky130_release_0.1.0/cells/esd_nfet_g5v0d10v5/sky130_fd_pr__esd_nfet_g5v0d10v5.pm3.spice
Reading file:  /home/eda/edk_cadence/sky130_release_0.1.0/models/corners/tt/nonfet.spice
Reading file:  /home/eda/edk_cadence/sky130_release_0.1.0/cells/nfet_01v8/sky130_fd_pr__nfet_01v8__mismatch.corner.spice
Reading file:  /home/eda/edk_cadence/sky130_release_0.1.0/cells/pfet_01v8/sky130_fd_pr__pfet_01v8__mismatch.corner.spice
Reading file:  /home/eda/edk_cadence/sky130_release_0.1.0/cells/nfet_01v8_lvt/sky130_fd_pr__nfet_01v8_lvt__mismatch.corner.spice
Reading file:  /home/eda/edk_cadence/sky130_release_0.1.0/cells/pfet_01v8_lvt/sky130_fd_pr__pfet_01v8_lvt__mismatch.corner.spice
Reading file:  /home/eda/edk_cadence/sky130_release_0.1.0/cells/pfet_01v8_hvt/sky130_fd_pr__pfet_01v8_hvt__mismatch.corner.spice
Reading file:  /home/eda/edk_cadence/sky130_release_0.1.0/cells/nfet_g5v0d10v5/sky130_fd_pr__nfet_g5v0d10v5__mismatch.corner.spice
Reading file:  /home/eda/edk_cadence/sky130_release_0.1.0/cells/pfet_g5v0d10v5/sky130_fd_pr__pfet_g5v0d10v5__mismatch.corner.spice
Reading file:  /home/eda/edk_cadence/sky130_release_0.1.0/cells/nfet_05v0_nvt/sky130_fd_pr__nfet_05v0_nvt__mismatch.corner.spice
Reading file:  /home/eda/edk_cadence/sky130_release_0.1.0/cells/nfet_03v3_nvt/sky130_fd_pr__nfet_03v3_nvt__mismatch.corner.spice
Reading file:  /home/eda/edk_cadence/sky130_release_0.1.0/models/r+c/res_typical__cap_typical.spice
Reading file:  /home/eda/edk_cadence/sky130_release_0.1.0/models/sky130_fd_pr__model__r+c.model.spice
Reading file:  /home/eda/edk_cadence/sky130_release_0.1.0/models/r+c.mrp1monte.spice
Reading file:  /home/eda/edk_cadence/sky130_release_0.1.0/cells/res_generic_nd/sky130_fd_pr__res_generic_nd.model.spice
Reading file:  /home/eda/edk_cadence/sky130_release_0.1.0/cells/res_generic_pd/sky130_fd_pr__res_generic_pd.model.spice
Reading file:  /home/eda/edk_cadence/sky130_release_0.1.0/models/parameters/typical.spice
Reading file:  /home/eda/edk_cadence/sky130_release_0.1.0/models/r+c/res_typical__cap_typical__lin.spice
Reading file:  /home/eda/edk_cadence/sky130_release_0.1.0/models/capacitors/sky130_fd_pr__model__cap_vpp.model.spice
Reading file:  /home/eda/edk_cadence/sky130_release_0.1.0/cells/cap_vpp_08p6x07p8_l1m1m2_noshield/sky130_fd_pr__cap_vpp_08p6x07p8_l1m1m2_noshield.model.spice
Reading file:  /home/eda/edk_cadence/sky130_release_0.1.0/cells/cap_vpp_04p4x04p6_l1m1m2_noshield/sky130_fd_pr__cap_vpp_04p4x04p6_l1m1m2_noshield.model.spice
Reading file:  /home/eda/edk_cadence/sky130_release_0.1.0/cells/cap_vpp_11p5x11p7_l1m1m2_noshield/sky130_fd_pr__cap_vpp_11p5x11p7_l1m1m2_noshield.model.spice
Reading file:  /home/eda/edk_cadence/sky130_release_0.1.0/cells/cap_vpp_01p8x01p8_m1m2_noshield/sky130_fd_pr__cap_vpp_01p8x01p8_m1m2_noshield.model.spice
Reading file:  /home/eda/edk_cadence/sky130_release_0.1.0/cells/cap_vpp_08p6x07p8_m1m2_shieldl1/sky130_fd_pr__cap_vpp_08p6x07p8_m1m2_shieldl1.model.spice
Reading file:  /home/eda/edk_cadence/sky130_release_0.1.0/cells/cap_vpp_04p4x04p6_m1m2_shieldl1/sky130_fd_pr__cap_vpp_04p4x04p6_m1m2_shieldl1.model.spice
Reading file:  /home/eda/edk_cadence/sky130_release_0.1.0/cells/cap_vpp_11p5x11p7_m1m2_shieldl1/sky130_fd_pr__cap_vpp_11p5x11p7_m1m2_shieldl1.model.spice
Reading file:  /home/eda/edk_cadence/sky130_release_0.1.0/cells/cap_vpp_08p6x07p8_l1m1m2_shieldpo_floatm3/sky130_fd_pr__cap_vpp_08p6x07p8_l1m1m2_shieldpo_floatm3.model.spice
Reading file:  /home/eda/edk_cadence/sky130_release_0.1.0/cells/cap_vpp_04p4x04p6_l1m1m2_shieldpo_floatm3/sky130_fd_pr__cap_vpp_04p4x04p6_l1m1m2_shieldpo_floatm3.model.spice
Reading file:  /home/eda/edk_cadence/sky130_release_0.1.0/cells/cap_vpp_11p5x11p7_l1m1m2_shieldpom3/sky130_fd_pr__cap_vpp_11p5x11p7_l1m1m2_shieldpom3.model.spice
Reading file:  /home/eda/edk_cadence/sky130_release_0.1.0/cells/cap_vpp_03p9x03p9_m1m2_shieldl1_floatm3/sky130_fd_pr__cap_vpp_03p9x03p9_m1m2_shieldl1_floatm3.model.spice
Reading file:  /home/eda/edk_cadence/sky130_release_0.1.0/cells/cap_vpp_04p4x04p6_l1m1m2_noshield/sky130_fd_pr__cap_vpp_04p4x04p6_l1m1m2_noshield_o1.model.spice
Reading file:  /home/eda/edk_cadence/sky130_release_0.1.0/cells/cap_vpp_08p6x07p8_m1m2_noshield/sky130_fd_pr__cap_vpp_08p6x07p8_m1m2_noshield.model.spice
Reading file:  /home/eda/edk_cadence/sky130_release_0.1.0/cells/cap_vpp_04p4x04p6_m1m2_noshield/sky130_fd_pr__cap_vpp_04p4x04p6_m1m2_noshield_o2.model.spice
Reading file:  /home/eda/edk_cadence/sky130_release_0.1.0/cells/cap_vpp_02p4x04p6_m1m2_noshield/sky130_fd_pr__cap_vpp_02p4x04p6_m1m2_noshield.model.spice
Reading file:  /home/eda/edk_cadence/sky130_release_0.1.0/cells/cap_vpp_04p4x04p6_m1m2_noshield/sky130_fd_pr__cap_vpp_04p4x04p6_m1m2_noshield.model.spice
Reading file:  /home/eda/edk_cadence/sky130_release_0.1.0/cells/cap_vpp_11p5x11p7_m1m2_noshield/sky130_fd_pr__cap_vpp_11p5x11p7_m1m2_noshield.model.spice
Reading file:  /home/eda/edk_cadence/sky130_release_0.1.0/cells/npn_05v5/sky130_fd_pr__npn_05v5__t.corner.spice
Reading file:  /home/eda/edk_cadence/sky130_release_0.1.0/cells/npn_05v5/sky130_fd_pr__npn_05v5_W1p00L1p00.model.spice
Reading file:  /home/eda/edk_cadence/sky130_release_0.1.0/cells/npn_05v5/sky130_fd_pr__npn_05v5_W1p00L2p00.model.spice
Reading file:  /home/eda/edk_cadence/sky130_release_0.1.0/cells/npn_11v0/sky130_fd_pr__npn_11v0_W1p00L1p00.model.spice
Reading file:  /home/eda/edk_cadence/sky130_release_0.1.0/cells/pnp_05v5/sky130_fd_pr__pnp_05v5_W3p40L3p40.model.spice
Reading file:  /home/eda/edk_cadence/sky130_release_0.1.0/models/corners/tt/specialized_cells.spice
Reading file:  /home/eda/edk_cadence/sky130_release_0.1.0/cells/special_nfet_latch/sky130_fd_pr__special_nfet_latch__mismatch.corner.spice
Reading file:  /home/eda/edk_cadence/sky130_release_0.1.0/cells/special_nfet_pass/sky130_fd_pr__special_nfet_pass__mismatch.corner.spice
Reading file:  /home/eda/edk_cadence/sky130_release_0.1.0/cells/special_nfet_pass_flash/sky130_fd_pr__special_nfet_pass_flash__mismatch.corner.spice
Reading file:  /home/eda/edk_cadence/sky130_release_0.1.0/cells/special_pfet_pass/sky130_fd_pr__special_pfet_pass__mismatch.corner.spice
Reading file:  /home/eda/edk_cadence/sky130_release_0.1.0/cells/special_nfet_pass_lvt/sky130_fd_pr__special_nfet_pass_lvt__tt.corner.spice
Reading file:  /home/eda/edk_cadence/sky130_release_0.1.0/cells/special_nfet_pass_lvt/sky130_fd_pr__special_nfet_pass_lvt.pm3.spice
Reading file:  /home/eda/edk_cadence/sky130_release_0.1.0/models/all.spice
Reading file:  /home/eda/edk_cadence/sky130_release_0.1.0/models/parameters/lod.spice
Reading file:  /home/eda/edk_cadence/sky130_release_0.1.0/models/parasitics/sky130_fd_pr__model__parasitic__diode_ps2nw.model.spice
Reading file:  /home/eda/edk_cadence/sky130_release_0.1.0/cells/diode_pw2nd_05v5/sky130_fd_pr__diode_pw2nd_05v5.model.spice
Reading file:  /home/eda/edk_cadence/sky130_release_0.1.0/cells/diode_pd2nw_05v5/sky130_fd_pr__diode_pd2nw_05v5.model.spice
Reading file:  /home/eda/edk_cadence/sky130_release_0.1.0/cells/diode_pd2nw_05v5_hvt/sky130_fd_pr__diode_pd2nw_05v5_hvt.model.spice
Reading file:  /home/eda/edk_cadence/sky130_release_0.1.0/cells/diode_pw2nd_11v0/sky130_fd_pr__diode_pw2nd_11v0.model.spice
Reading file:  /home/eda/edk_cadence/sky130_release_0.1.0/cells/diode_pd2nw_11v0/sky130_fd_pr__diode_pd2nw_11v0.model.spice
Reading file:  /home/eda/edk_cadence/sky130_release_0.1.0/cells/diode_pw2nd_05v5_nvt/sky130_fd_pr__diode_pw2nd_05v5_nvt.model.spice
Reading file:  /home/eda/edk_cadence/sky130_release_0.1.0/cells/diode_pw2nd_05v5_lvt/sky130_fd_pr__diode_pw2nd_05v5_lvt.model.spice
Reading file:  /home/eda/edk_cadence/sky130_release_0.1.0/cells/diode_pd2nw_05v5_lvt/sky130_fd_pr__diode_pd2nw_05v5_lvt.model.spice
Reading file:  /home/eda/edk_cadence/sky130_release_0.1.0/models/parasitics/sky130_fd_pr__model__parasitic__diode_pw2dn.model.spice
Reading file:  /home/eda/edk_cadence/sky130_release_0.1.0/models/parasitics/sky130_fd_pr__model__parasitic__diode_ps2dn.model.spice
Reading file:  /home/eda/edk_cadence/sky130_release_0.1.0/cells/pfet_g5v0d16v0/sky130_fd_pr__pfet_g5v0d16v0__parasitic__diode_pw2dn.model.spice
Reading file:  /home/eda/edk_cadence/sky130_release_0.1.0/cells/pnp_05v5/sky130_fd_pr__pnp_05v5_W0p68L0p68.model.spice
Reading file:  /home/eda/edk_cadence/sky130_release_0.1.0/cells/pfet_g5v0d16v0/sky130_fd_pr__pfet_g5v0d16v0.pm3.spice
Reading file:  /home/eda/edk_cadence/sky130_release_0.1.0/cells/pfet_g5v0d16v0/sky130_fd_pr__pfet_g5v0d16v0__subcircuit.pm3.spice
Reading file:  /home/eda/edk_cadence/sky130_release_0.1.0/cells/cap_var_lvt/sky130_fd_pr__cap_var_lvt.model.spice
Reading file:  /home/eda/edk_cadence/sky130_release_0.1.0/cells/cap_vpp_08p6x07p8_l1m1m2_noshield/sky130_fd_pr__cap_vpp_08p6x07p8_l1m1m2_noshield_o1.model.spice
Reading file:  /home/eda/edk_cadence/sky130_release_0.1.0/models/capacitors/sky130_fd_pr__model__cap_mim.model.spice
Reading file:  /home/eda/edk_cadence/sky130_release_0.1.0/cells/cap_mim_m3/sky130_fd_pr__cap_mim_m3_1.model.spice
Reading file:  /home/eda/edk_cadence/sky130_release_0.1.0/cells/cap_mim_m3/sky130_fd_pr__cap_mim_m3_2.model.spice
Reading file:  /home/eda/edk_cadence/sky130_release_0.1.0/models/capacitors/sky130_fd_pr__model__cap_vpp_only_mos.model.spice
Reading file:  /home/eda/edk_cadence/sky130_release_0.1.0/cells/cap_vpp_04p4x04p6_m1m2_noshield/sky130_fd_pr__cap_vpp_04p4x04p6_m1m2_noshield_o1nhv.model.spice
Reading file:  /home/eda/edk_cadence/sky130_release_0.1.0/cells/cap_vpp_04p4x04p6_m1m2_noshield/sky130_fd_pr__cap_vpp_04p4x04p6_m1m2_noshield_o1phv.model.spice
Reading file:  /home/eda/edk_cadence/sky130_release_0.1.0/models/sonos_p/begin_of_life/mm.spice
Reading file:  /home/eda/edk_cadence/sky130_release_0.1.0/models/sonos_e/begin_of_life/mm.spice
Reading file:  /home/eda/edk_cadence/sky130_release_0.1.0/models/head.spice
Reading file:  /home/eda/edk_cadence/sky130_release_0.1.0/cells/special_nfet_pass/sky130_fd_pr__special_nfet_pass.pm3.spice
Reading file:  /home/eda/edk_cadence/sky130_release_0.1.0/cells/special_nfet_latch/sky130_fd_pr__special_nfet_latch.pm3.spice
Reading file:  /home/eda/edk_cadence/sky130_release_0.1.0/cells/special_pfet_pass/sky130_fd_pr__special_pfet_pass.pm3.spice
Reading file:  /home/eda/edk_cadence/sky130_release_0.1.0/cells/special_nfet_pass_flash/sky130_fd_pr__special_nfet_pass_flash.pm3.spice
Reading file:  /home/eda/edk_cadence/sky130_release_0.1.0/models/capacitors/sky130_fd_pr__model__cap_vpp_only_pq.model.spice
Reading file:  /home/eda/edk_cadence/sky130_release_0.1.0/cells/cap_vpp_08p6x07p8_m1m2m3_shieldl1/sky130_fd_pr__cap_vpp_08p6x07p8_m1m2m3_shieldl1.model.spice
Reading file:  /home/eda/edk_cadence/sky130_release_0.1.0/cells/cap_vpp_04p4x04p6_m1m2m3_shieldl1/sky130_fd_pr__cap_vpp_04p4x04p6_m1m2m3_shieldl1.model.spice
Reading file:  /home/eda/edk_cadence/sky130_release_0.1.0/cells/cap_vpp_11p5x11p7_m1m2m3_shieldl1/sky130_fd_pr__cap_vpp_11p5x11p7_m1m2m3_shieldl1.model.spice
Reading file:  /home/eda/edk_cadence/sky130_release_0.1.0/cells/cap_vpp_11p5x11p7_l1m1m2m3_shieldm4/sky130_fd_pr__cap_vpp_11p5x11p7_l1m1m2m3_shieldm4.model.spice
Reading file:  /home/eda/edk_cadence/sky130_release_0.1.0/cells/cap_vpp_11p5x11p7_l1m1m2m3_shieldpom4/sky130_fd_pr__cap_vpp_11p5x11p7_l1m1m2m3_shieldpom4.model.spice
Reading file:  /home/eda/edk_cadence/sky130_release_0.1.0/cells/cap_vpp_06p8x06p1_l1m1m2m3_shieldpom4/sky130_fd_pr__cap_vpp_06p8x06p1_l1m1m2m3_shieldpom4.model.spice
Reading file:  /home/eda/edk_cadence/sky130_release_0.1.0/cells/cap_vpp_06p8x06p1_m1m2m3_shieldl1m4/sky130_fd_pr__cap_vpp_06p8x06p1_m1m2m3_shieldl1m4.model.spice
Reading file:  /home/eda/edk_cadence/sky130_release_0.1.0/models/capacitors/sky130_fd_pr__model__cap_vpp_only_p.model.spice
Reading file:  /home/eda/edk_cadence/sky130_release_0.1.0/cells/cap_vpp_11p5x11p7_l1m1m2m3m4_shieldm5/sky130_fd_pr__cap_vpp_11p5x11p7_l1m1m2m3m4_shieldm5.model.spice
Reading file:  /home/eda/edk_cadence/sky130_release_0.1.0/cells/cap_vpp_11p5x11p7_l1m1m2m3m4_shieldpom5/sky130_fd_pr__cap_vpp_11p5x11p7_l1m1m2m3m4_shieldpom5.model.spice
Reading file:  /home/eda/edk_cadence/sky130_release_0.1.0/cells/cap_vpp_11p5x11p7_m1m2m3m4_shieldl1m5/sky130_fd_pr__cap_vpp_11p5x11p7_m1m2m3m4_shieldl1m5.model.spice
Reading file:  /home/eda/edk_cadence/sky130_release_0.1.0/cells/cap_vpp_11p5x11p7_m1m4_noshield/sky130_fd_pr__cap_vpp_11p5x11p7_m1m4_noshield.model.spice
Reading file:  /home/eda/edk_cadence/sky130_release_0.1.0/cells/cap_vpp_11p5x11p7_m1m2m3m4_shieldm5/sky130_fd_pr__cap_vpp_11p5x11p7_m1m2m3m4_shieldm5.model.spice
Reading file:  /home/eda/edk_cadence/sky130_release_0.1.0/cells/cap_vpp_08p6x07p8_m1m2m3_shieldl1m5_floatm4/sky130_fd_pr__cap_vpp_08p6x07p8_m1m2m3_shieldl1m5_floatm4.model.spice
Reading file:  /home/eda/edk_cadence/sky130_release_0.1.0/cells/cap_vpp_04p4x04p6_m1m2m3_shieldl1m5_floatm4/sky130_fd_pr__cap_vpp_04p4x04p6_m1m2m3_shieldl1m5_floatm4.model.spice
Reading file:  /home/eda/edk_cadence/sky130_release_0.1.0/cells/cap_vpp_11p5x11p7_m1m2m3_shieldl1m5_floatm4/sky130_fd_pr__cap_vpp_11p5x11p7_m1m2m3_shieldl1m5_floatm4.model.spice
Reading file:  /home/eda/edk_cadence/sky130_release_0.1.0/cells/cap_vpp_11p3x11p8_l1m1m2m3m4_shieldm5/sky130_fd_pr__cap_vpp_11p3x11p8_l1m1m2m3m4_shieldm5_nhv.model.spice
Reading file:  /home/eda/edk_cadence/sky130_release_0.1.0/cells/cap_vpp_11p3x11p8_l1m1m2m3m4_shieldm5/sky130_fd_pr__cap_vpp_11p3x11p8_l1m1m2m3m4_shieldm5_nhv__base.model.spice
Reading file:  /home/eda/edk_cadence/sky130_release_0.1.0/cells/cap_vpp_11p5x11p7_l1m1m2m3m4_shieldpom5/sky130_fd_pr__cap_vpp_11p5x11p7_l1m1m2m3m4_shieldpom5_x.model.spice
Reading file:  /home/eda/edk_cadence/sky130_release_0.1.0/cells/cap_vpp_02p9x06p1_m1m2m3m4_shieldl1/sky130_fd_pr__cap_vpp_02p9x06p1_m1m2m3m4_shieldl1_fingercap2.model.spice
Reading file:  /home/eda/edk_cadence/sky130_release_0.1.0/cells/cap_vpp_02p7x11p1_m1m2m3m4_shieldl1/sky130_fd_pr__cap_vpp_02p7x11p1_m1m2m3m4_shieldl1_fingercap.model.spice
Reading file:  /home/eda/edk_cadence/sky130_release_0.1.0/cells/cap_vpp_02p7x21p1_m1m2m3m4_shieldl1/sky130_fd_pr__cap_vpp_02p7x21p1_m1m2m3m4_shieldl1_fingercap.model.spice
Reading file:  /home/eda/edk_cadence/sky130_release_0.1.0/cells/cap_vpp_02p7x41p1_m1m2m3m4_shieldl1/sky130_fd_pr__cap_vpp_02p7x41p1_m1m2m3m4_shieldl1_fingercap.model.spice
Reading file:  /home/eda/edk_cadence/sky130_release_0.1.0/cells/cap_vpp_02p7x06p1_m1m2m3m4_shieldl1/sky130_fd_pr__cap_vpp_02p7x06p1_m1m2m3m4_shieldl1_fingercap.model.spice
Reading file:  /home/eda/edk_cadence/sky130_release_0.1.0/cells/cap_vpp_11p3x11p3_m1m2m3m4_shieldl1/sky130_fd_pr__cap_vpp_11p3x11p3_m1m2m3m4_shieldl1_wafflecap.model.spice
Reading file:  /home/eda/edk_cadence/sky130_release_0.1.0/cells/cap_vpp_05p9x05p9_m1m2m3m4_shieldl1/sky130_fd_pr__cap_vpp_05p9x05p9_m1m2m3m4_shieldl1_wafflecap.model.spice
Reading file:  /home/eda/edk_cadence/sky130_release_0.1.0/cells/cap_vpp_44p7x23p1_pol1m1m2m3m4m5_noshield/sky130_fd_pr__cap_vpp_44p7x23p1_pol1m1m2m3m4m5_noshield.model.spice
Reading file:  /home/eda/edk_cadence/sky130_release_0.1.0/models/sky130_fd_pr__model__linear.model.spice
Reading file:  /home/eda/edk_cadence/sky130_release_0.1.0/models/parasitics/sky130_fd_pr__model__parasitic__res_po.model.spice
Reading file:  /home/eda/edk_cadence/sky130_release_0.1.0/cells/res_xhigh_po/sky130_fd_pr__res_xhigh_po.model.spice
Reading file:  /home/eda/edk_cadence/sky130_release_0.1.0/cells/res_high_po/sky130_fd_pr__res_high_po.model.spice
Reading file:  /home/eda/edk_cadence/sky130_release_0.1.0/cells/res_xhigh_po/sky130_fd_pr__res_xhigh_po_0p35.model.spice
Reading file:  /home/eda/edk_cadence/sky130_release_0.1.0/cells/res_xhigh_po/sky130_fd_pr__res_xhigh_po_0p69.model.spice
Reading file:  /home/eda/edk_cadence/sky130_release_0.1.0/cells/res_xhigh_po/sky130_fd_pr__res_xhigh_po_1p41.model.spice
Reading file:  /home/eda/edk_cadence/sky130_release_0.1.0/cells/res_xhigh_po/sky130_fd_pr__res_xhigh_po_2p85.model.spice
Reading file:  /home/eda/edk_cadence/sky130_release_0.1.0/cells/res_xhigh_po/sky130_fd_pr__res_xhigh_po_5p73.model.spice
Reading file:  /home/eda/edk_cadence/sky130_release_0.1.0/cells/res_xhigh_po/sky130_fd_pr__res_xhigh_po__base.model.spice
Reading file:  /home/eda/edk_cadence/sky130_release_0.1.0/cells/res_high_po/sky130_fd_pr__res_high_po_0p35.model.spice
Reading file:  /home/eda/edk_cadence/sky130_release_0.1.0/cells/res_high_po/sky130_fd_pr__res_high_po_0p69.model.spice
Reading file:  /home/eda/edk_cadence/sky130_release_0.1.0/cells/res_high_po/sky130_fd_pr__res_high_po_1p41.model.spice
Reading file:  /home/eda/edk_cadence/sky130_release_0.1.0/cells/res_high_po/sky130_fd_pr__res_high_po_2p85.model.spice
Reading file:  /home/eda/edk_cadence/sky130_release_0.1.0/cells/res_high_po/sky130_fd_pr__res_high_po_5p73.model.spice
Reading file:  /home/eda/edk_cadence/sky130_release_0.1.0/cells/rf_nfet_g5v0d10v5/sky130_fd_pr__rf_nfet_g5v0d10v5.pm3.spice
Reading file:  /home/eda/edk_cadence/sky130_release_0.1.0/cells/rf_nfet_01v8_lvt/sky130_fd_pr__rf_nfet_01v8_lvt.pm3.spice
Reading file:  /home/eda/edk_cadence/sky130_release_0.1.0/cells/rf_nfet_01v8/sky130_fd_pr__rf_nfet_01v8.pm3.spice
Reading file:  /home/eda/edk_cadence/sky130_release_0.1.0/cells/rf_pfet_01v8/sky130_fd_pr__rf_pfet_01v8.pm3.spice
Reading file:  /home/eda/edk_cadence/sky130_release_0.1.0/cells/rf_pfet_01v8_mvt/sky130_fd_pr__rf_pfet_01v8_mvt.pm3.spice
Reading file:  /home/eda/edk_cadence/sky130_release_0.1.0/models/corners/tt/rf.spice
Reading file:  /home/eda/edk_cadence/sky130_release_0.1.0/cells/rf_nfet_01v8/sky130_fd_pr__rf_nfet_01v8_b__tt.corner.spice
Reading file:  /home/eda/edk_cadence/sky130_release_0.1.0/cells/rf_nfet_01v8/sky130_fd_pr__rf_nfet_01v8_b.pm3.spice
Reading file:  /home/eda/edk_cadence/sky130_release_0.1.0/cells/rf_nfet_01v8_lvt/sky130_fd_pr__rf_nfet_01v8_lvt_b__tt.corner.spice
Reading file:  /home/eda/edk_cadence/sky130_release_0.1.0/cells/rf_nfet_01v8_lvt/sky130_fd_pr__rf_nfet_01v8_lvt_b.pm3.spice
Reading file:  /home/eda/edk_cadence/sky130_release_0.1.0/cells/rf_nfet_g5v0d10v5/sky130_fd_pr__rf_nfet_g5v0d10v5_b__tt.corner.spice
Reading file:  /home/eda/edk_cadence/sky130_release_0.1.0/cells/rf_nfet_g5v0d10v5/sky130_fd_pr__rf_nfet_g5v0d10v5_b.pm3.spice
Reading file:  /home/eda/edk_cadence/sky130_release_0.1.0/cells/rf_pfet_01v8/sky130_fd_pr__rf_pfet_01v8_b__tt.corner.spice
Reading file:  /home/eda/edk_cadence/sky130_release_0.1.0/cells/rf_pfet_01v8/sky130_fd_pr__rf_pfet_01v8_b.pm3.spice
Reading file:  /home/eda/edk_cadence/sky130_release_0.1.0/cells/rf_nfet_01v8/sky130_fd_pr__rf_nfet_01v8__mismatch.corner.spice
Reading file:  /home/eda/edk_cadence/sky130_release_0.1.0/cells/rf_nfet_01v8_lvt/sky130_fd_pr__rf_nfet_01v8_lvt__mismatch.corner.spice
Reading file:  /home/eda/edk_cadence/sky130_release_0.1.0/cells/rf_nfet_g5v0d10v5/sky130_fd_pr__rf_nfet_g5v0d10v5__mismatch.corner.spice
Reading file:  /home/eda/edk_cadence/sky130_release_0.1.0/cells/rf_pfet_01v8/sky130_fd_pr__rf_pfet_01v8__mismatch.corner.spice
Reading file:  /home/eda/edk_cadence/sky130_release_0.1.0/cells/rf_pfet_01v8_mvt/sky130_fd_pr__rf_pfet_01v8_mvt__tt_discrete.corner.spice
Reading file:  /home/eda/edk_cadence/sky130_release_0.1.0/cells/pfet_01v8_mvt/sky130_fd_pr__pfet_01v8_mvt.pm3.spice
Reading file:  /home/eda/edk_cadence/sky130_release_0.1.0/cells/rf_pfet_01v8_mvt/sky130_fd_pr__rf_pfet_01v8_mvt__mismatch.corner.spice
Reading file:  /home/eda/edk_cadence/sky130_release_0.1.0/cells/pfet_20v0/sky130_fd_pr__pfet_20v0__tt_discrete.corner.spice
Reading file:  /home/eda/edk_cadence/sky130_release_0.1.0/cells/pfet_20v0/sky130_fd_pr__pfet_20v0__subcircuit.pm3.spice
Reading file:  /home/eda/edk_cadence/sky130_release_0.1.0/cells/pfet_20v0/sky130_fd_pr__pfet_20v0__parasitic__diode_pw2dn.model.spice
Reading file:  /home/eda/edk_cadence/sky130_release_0.1.0/cells/nfet_20v0/sky130_fd_pr__nfet_20v0__tt_discrete.corner.spice
Reading file:  /home/eda/edk_cadence/sky130_release_0.1.0/cells/nfet_20v0/sky130_fd_pr__nfet_20v0__subcircuit.pm3.spice
Reading file:  /home/eda/edk_cadence/sky130_release_0.1.0/models/parasitics/sky130_fd_pr__model__parasitic__diode_pw2dn__extended_drain.model.spice
Reading file:  /home/eda/edk_cadence/sky130_release_0.1.0/cells/diode_pw2nd_05v5/sky130_fd_pr__diode_pw2nd_05v5__extended_drain.model.spice
Reading file:  /home/eda/edk_cadence/sky130_release_0.1.0/cells/nfet_20v0_iso/sky130_fd_pr__nfet_20v0_iso__subcircuit.pm3.spice
Reading file:  /home/eda/edk_cadence/sky130_release_0.1.0/models/parasitics/sky130_fd_pr__model__parasitic__diode_ps2dn__extended_drain.model.spice
Reading file:  /home/eda/edk_cadence/sky130_release_0.1.0/cells/nfet_20v0_reverse_iso/sky130_fd_pr__nfet_20v0_reverse_iso__subcircuit.pm3.spice
Reading file:  /home/eda/edk_cadence/sky130_release_0.1.0/cells/nfet_20v0_zvt/sky130_fd_pr__nfet_20v0_zvt__tt_discrete.corner.spice
Reading file:  /home/eda/edk_cadence/sky130_release_0.1.0/cells/nfet_20v0_zvt/sky130_fd_pr__nfet_20v0_zvt__subcircuit.pm3.spice
Reading file:  /home/eda/edk_cadence/sky130_release_0.1.0/cells/nfet_20v0_zvt/sky130_fd_pr__nfet_20v0_zvt__parasitic__diode_ps2dn__extended_drain.model.spice
Reading file:  /home/eda/edk_cadence/sky130_release_0.1.0/cells/nfet_20v0_nvt/sky130_fd_pr__nfet_20v0_nvt__tt_discrete.corner.spice
Reading file:  /home/eda/edk_cadence/sky130_release_0.1.0/cells/nfet_20v0_nvt/sky130_fd_pr__nfet_20v0_nvt__subcircuit.pm3.spice
Reading file:  /home/eda/edk_cadence/sky130_release_0.1.0/cells/nfet_20v0_nvt/sky130_fd_pr__nfet_20v0_nvt__parasitic__diode_ps2dn.model.spice
Reading file:  /home/me59/bjt_amp_langgraph/seed_0_a91c4f2e_fixed/trial_0/candidate.scs
Time for NDB Parsing: CPU = 700.951 ms, elapsed = 934.396 ms.
Time accumulated: CPU = 766.721 ms, elapsed = 934.401 ms.
Peak resident memory used = 87.2 Mbytes.

Time for Elaboration: CPU = 39.289 ms, elapsed = 39.2969 ms.
Time accumulated: CPU = 806.126 ms, elapsed = 973.813 ms.
Peak resident memory used = 99.4 Mbytes.


Time for EDB Visiting: CPU = 1.49 ms, elapsed = 1.49083 ms.
Time accumulated: CPU = 807.843 ms, elapsed = 975.528 ms.
Peak resident memory used = 100 Mbytes.


Warning from spectre during initial setup.
    WARNING (CMI-2275): XDUT.XQBUF.sky130_fd_pr__npn_05v5_W1p00L1p00__model: Temperature effects have made `rbm' less than `minr'.
    WARNING (CMI-2275): XDUT.XQ1.sky130_fd_pr__npn_05v5_W1p00L1p00__model: Temperature effects have made `rbm' less than `minr'.
Notice from spectre during initial setup.
    XDUT.XQ1.sky130_fd_pr__npn_05v5_W1p00L1p00__model: `rbm' is less than `minr'.  `minr' is used.


Global user options:
             rawfmt = psfxl

Scoped user options:

Circuit inventory:
              nodes 10
                bjt 3     
          capacitor 7     
           resistor 7     
            vsource 3     

Analysis and control statement inventory:
                 ac 1     

Output statements:
             .probe 0     
           .measure 0     
               save 1     

Time for parsing: CPU = 5.482 ms, elapsed = 29.979 ms.
Time accumulated: CPU = 813.506 ms, elapsed = 1.00569 s.
Peak resident memory used = 102 Mbytes.

~~~~~~~~~~~~~~~~~~~~~~
Pre-Simulation Summary
~~~~~~~~~~~~~~~~~~~~~~
~~~~~~~~~~~~~~~~~~~~~~

********************************************
AC Analysis `ac': freq = (100 mHz -> 10 MHz)
********************************************
DC simulation time: CPU = 748 us, elapsed = 748.873 us.

Opening the PSF file /home/me59/bjt_amp_langgraph/seed_0_a91c4f2e_fixed/trial_0/ac_psf/ac.ac ...
......9......8......7......6......5......4......3......2......1......0
Accumulated DC solution time =            0 s.
Intrinsic ac analysis time =              0 s.
Total time required for ac analysis `ac': CPU = 10.67 ms, elapsed = 14.2672 ms.
Time accumulated: CPU = 837.21 ms, elapsed = 1.03078 s.
Peak resident memory used = 104 Mbytes.


Aggregate audit (2:10:46 PM, Wed Jun 3, 2026):
Time used: CPU = 911 ms, elapsed = 1.12 s, util. = 81.7%.
Time spent in licensing: elapsed = 133 ms, percentage of total = 11.9%.
Peak memory used = 104 Mbytes.
Simulation started at: 2:10:45 PM, Wed Jun 3, 2026, ended at: 2:10:46 PM, Wed Jun 3, 2026, with elapsed time (wall clock): 1.12 s.
spectre completes with 0 errors, 2 warnings, and 2 notices.
