
Spectre (R) Circuit Simulator
Version 19.1.0.162.isr1 64bit -- 14 Oct 2019
Copyright (C) 1989-2019 Cadence Design Systems, Inc. All rights reserved
        worldwide. Cadence and Spectre are registered trademarks of Cadence
        Design Systems, Inc. All others are the property of their respective
        holders.

Includes RSA BSAFE(R) Cryptographic or Security Protocol Software from RSA
        Security, Inc.

User: me59   Host: dice   HostID: B4A34EA0   PID: 96455
Memory  available: 107.8810 GB  physical: 269.9321 GB
Linux   : CentOS Linux release 7.9.2009 (Core)
CPU Type: Intel(R) Xeon(R) Gold 6242R CPU @ 3.10GHz
        Socket: Processors [Frequency] (Hyperthreaded Processor)
        0:       0 [1397.9] ( 40 ),  1 [1334.1] ( 41 ),  2 [2295.7] ( 42 )
                 3 [1322.8] ( 43 ),  4 [2154.3] ( 44 ),  5 [3100.0] ( 45 )
                 6 [1695.1] ( 46 ),  7 [1288.7] ( 47 ),  8 [2122.5] ( 48 )
                 9 [1735.6] ( 49 ), 10 [1326.2] ( 50 ), 11 [1335.4] ( 51 )
                12 [1378.6] ( 52 ), 13 [1429.3] ( 53 ), 14 [1291.7] ( 54 )
                15 [1296.8] ( 55 ), 16 [1263.3] ( 56 ), 17 [1286.8] ( 57 )
                18 [1221.5] ( 58 ), 19 [1287.2] ( 59 )
        1:      20 [1200.3] ( 60 ), 21 [1260.1] ( 61 ), 22 [1209.4] ( 62 )
                23 [1819.6] ( 63 ), 24 [1799.8] ( 64 ), 25 [1794.6] ( 65 )
                26 [1200.0] ( 66 ), 27 [1294.9] ( 67 ), 28 [1443.5] ( 68 )
                29 [1853.7] ( 69 ), 30 [1596.5] ( 70 ), 31 [1297.2] ( 71 )
                32 [1215.5] ( 72 ), 33 [1200.0] ( 73 ), 34 [1200.0] ( 74 )
                35 [1200.0] ( 75 ), 36 [1200.0] ( 76 ), 37 [3799.9] ( 77 )
                38 [1200.0] ( 78 ), 39 [1200.0] ( 79 )
        
System load averages (1min, 5min, 15min) : 4.7 %, 5.1 %, 5.6 %
Hyperthreading is enabled


Simulating
        `/home/me59/amplifier_runner/q5-bp-dual-input-hp-output-sink-trial-0146/run/tb_ac.scs'
        on dice at 10:10:22 AM, Mon Jun 8, 2026 (process id: 96455).
Current working directory:
        /home/me59/amplifier_runner/q5-bp-dual-input-hp-output-sink-trial-0146/run
Command line:
    /home/eda/cadence/spectre191/tools.lnx86/bin/spectre -64  \
        /home/me59/amplifier_runner/q5-bp-dual-input-hp-output-sink-trial-0146/run/tb_ac.scs
        \
        +escchars +log  \
        /home/me59/amplifier_runner/q5-bp-dual-input-hp-output-sink-trial-0146/run/spectre_ac.log
        \
        -format psfxl -raw  \
        /home/me59/amplifier_runner/q5-bp-dual-input-hp-output-sink-trial-0146/run/ac_psf
        \
        +lqtimeout 60
Reading file: 
        /home/me59/amplifier_runner/q5-bp-dual-input-hp-output-sink-trial-0146/run/tb_ac.scs
Reading file: 
        /home/eda/cadence/spectre191/tools.lnx86/spectre/etc/configs/spectre.cfg
Reading file: 
        /home/eda/edk_cadence/sky130_release_0.1.0/models/sky130.lib.spice
Reading file: 
        /home/eda/edk_cadence/sky130_release_0.1.0/cells/nfet_01v8/sky130_fd_pr__nfet_01v8__tt.corner.spice
Reading file: 
        /home/eda/edk_cadence/sky130_release_0.1.0/cells/nfet_01v8/sky130_fd_pr__nfet_01v8__tt.pm3.spice
Reading file: 
        /home/eda/edk_cadence/sky130_release_0.1.0/cells/nfet_01v8_lvt/sky130_fd_pr__nfet_01v8_lvt__tt.corner.spice
Reading file: 
        /home/eda/edk_cadence/sky130_release_0.1.0/cells/nfet_01v8_lvt/sky130_fd_pr__nfet_01v8_lvt__tt.pm3.spice
Reading file: 
        /home/eda/edk_cadence/sky130_release_0.1.0/cells/pfet_01v8/sky130_fd_pr__pfet_01v8__tt.corner.spice
Reading file: 
        /home/eda/edk_cadence/sky130_release_0.1.0/cells/pfet_01v8/sky130_fd_pr__pfet_01v8__tt.pm3.spice
Reading file: 
        /home/eda/edk_cadence/sky130_release_0.1.0/cells/nfet_03v3_nvt/sky130_fd_pr__nfet_03v3_nvt__tt.corner.spice
Reading file: 
        /home/eda/edk_cadence/sky130_release_0.1.0/cells/nfet_03v3_nvt/sky130_fd_pr__nfet_03v3_nvt.pm3.spice
Reading file: 
        /home/eda/edk_cadence/sky130_release_0.1.0/cells/nfet_05v0_nvt/sky130_fd_pr__nfet_05v0_nvt__tt.corner.spice
Reading file: 
        /home/eda/edk_cadence/sky130_release_0.1.0/cells/nfet_05v0_nvt/sky130_fd_pr__nfet_05v0_nvt.pm3.spice
Reading file: 
        /home/eda/edk_cadence/sky130_release_0.1.0/cells/esd_nfet_01v8/sky130_fd_pr__esd_nfet_01v8__tt.corner.spice
Reading file: 
        /home/eda/edk_cadence/sky130_release_0.1.0/cells/esd_nfet_01v8/sky130_fd_pr__esd_nfet_01v8.pm3.spice
Reading file: 
        /home/eda/edk_cadence/sky130_release_0.1.0/cells/pfet_01v8_lvt/sky130_fd_pr__pfet_01v8_lvt__tt.corner.spice
Reading file: 
        /home/eda/edk_cadence/sky130_release_0.1.0/cells/pfet_01v8_lvt/sky130_fd_pr__pfet_01v8_lvt__tt.pm3.spice
Reading file: 
        /home/eda/edk_cadence/sky130_release_0.1.0/cells/pfet_01v8_hvt/sky130_fd_pr__pfet_01v8_hvt__tt.corner.spice
Reading file: 
        /home/eda/edk_cadence/sky130_release_0.1.0/cells/pfet_01v8_hvt/sky130_fd_pr__pfet_01v8_hvt__tt.pm3.spice
Reading file: 
        /home/eda/edk_cadence/sky130_release_0.1.0/cells/esd_pfet_g5v0d10v5/sky130_fd_pr__esd_pfet_g5v0d10v5__tt.corner.spice
Reading file: 
        /home/eda/edk_cadence/sky130_release_0.1.0/cells/esd_pfet_g5v0d10v5/sky130_fd_pr__esd_pfet_g5v0d10v5.pm3.spice
Reading file: 
        /home/eda/edk_cadence/sky130_release_0.1.0/cells/pfet_g5v0d10v5/sky130_fd_pr__pfet_g5v0d10v5__tt.corner.spice
Reading file: 
        /home/eda/edk_cadence/sky130_release_0.1.0/cells/pfet_g5v0d10v5/sky130_fd_pr__pfet_g5v0d10v5__tt.pm3.spice
Reading file: 
        /home/eda/edk_cadence/sky130_release_0.1.0/cells/pfet_g5v0d16v0/sky130_fd_pr__pfet_g5v0d16v0__tt.corner.spice
Reading file: 
        /home/eda/edk_cadence/sky130_release_0.1.0/cells/nfet_g5v0d10v5/sky130_fd_pr__nfet_g5v0d10v5__tt.corner.spice
Reading file: 
        /home/eda/edk_cadence/sky130_release_0.1.0/cells/nfet_g5v0d10v5/sky130_fd_pr__nfet_g5v0d10v5__tt.pm3.spice
Reading file: 
        /home/eda/edk_cadence/sky130_release_0.1.0/cells/nfet_g5v0d16v0/sky130_fd_pr__nfet_g5v0d16v0__tt_discrete.corner.spice
Reading file: 
        /home/eda/edk_cadence/sky130_release_0.1.0/cells/nfet_g5v0d16v0/sky130_fd_pr__nfet_g5v0d16v0__subcircuit.pm3.spice
Reading file: 
        /home/eda/edk_cadence/sky130_release_0.1.0/cells/nfet_g5v0d16v0/sky130_fd_pr__nfet_g5v0d16v0.pm3.spice
Reading file: 
        /home/eda/edk_cadence/sky130_release_0.1.0/cells/esd_nfet_g5v0d10v5/sky130_fd_pr__esd_nfet_g5v0d10v5__tt.corner.spice
Reading file: 
        /home/eda/edk_cadence/sky130_release_0.1.0/cells/esd_nfet_g5v0d10v5/sky130_fd_pr__esd_nfet_g5v0d10v5.pm3.spice
Reading file: 
        /home/eda/edk_cadence/sky130_release_0.1.0/models/corners/tt/nonfet.spice
Reading file: 
        /home/eda/edk_cadence/sky130_release_0.1.0/cells/nfet_01v8/sky130_fd_pr__nfet_01v8__mismatch.corner.spice
Reading file: 
        /home/eda/edk_cadence/sky130_release_0.1.0/cells/pfet_01v8/sky130_fd_pr__pfet_01v8__mismatch.corner.spice
Reading file: 
        /home/eda/edk_cadence/sky130_release_0.1.0/cells/nfet_01v8_lvt/sky130_fd_pr__nfet_01v8_lvt__mismatch.corner.spice
Reading file: 
        /home/eda/edk_cadence/sky130_release_0.1.0/cells/pfet_01v8_lvt/sky130_fd_pr__pfet_01v8_lvt__mismatch.corner.spice
Reading file: 
        /home/eda/edk_cadence/sky130_release_0.1.0/cells/pfet_01v8_hvt/sky130_fd_pr__pfet_01v8_hvt__mismatch.corner.spice
Reading file: 
        /home/eda/edk_cadence/sky130_release_0.1.0/cells/nfet_g5v0d10v5/sky130_fd_pr__nfet_g5v0d10v5__mismatch.corner.spice
Reading file: 
        /home/eda/edk_cadence/sky130_release_0.1.0/cells/pfet_g5v0d10v5/sky130_fd_pr__pfet_g5v0d10v5__mismatch.corner.spice
Reading file: 
        /home/eda/edk_cadence/sky130_release_0.1.0/cells/nfet_05v0_nvt/sky130_fd_pr__nfet_05v0_nvt__mismatch.corner.spice
Reading file: 
        /home/eda/edk_cadence/sky130_release_0.1.0/cells/nfet_03v3_nvt/sky130_fd_pr__nfet_03v3_nvt__mismatch.corner.spice
Reading file: 
        /home/eda/edk_cadence/sky130_release_0.1.0/models/r+c/res_typical__cap_typical.spice
Reading file: 
        /home/eda/edk_cadence/sky130_release_0.1.0/models/sky130_fd_pr__model__r+c.model.spice
Reading file: 
        /home/eda/edk_cadence/sky130_release_0.1.0/models/r+c.mrp1monte.spice
Reading file: 
        /home/eda/edk_cadence/sky130_release_0.1.0/cells/res_generic_nd/sky130_fd_pr__res_generic_nd.model.spice
Reading file: 
        /home/eda/edk_cadence/sky130_release_0.1.0/cells/res_generic_pd/sky130_fd_pr__res_generic_pd.model.spice
Reading file: 
        /home/eda/edk_cadence/sky130_release_0.1.0/models/parameters/typical.spice
Reading file: 
        /home/eda/edk_cadence/sky130_release_0.1.0/models/r+c/res_typical__cap_typical__lin.spice
Reading file: 
        /home/eda/edk_cadence/sky130_release_0.1.0/models/capacitors/sky130_fd_pr__model__cap_vpp.model.spice
Reading file: 
        /home/eda/edk_cadence/sky130_release_0.1.0/cells/cap_vpp_08p6x07p8_l1m1m2_noshield/sky130_fd_pr__cap_vpp_08p6x07p8_l1m1m2_noshield.model.spice
Reading file: 
        /home/eda/edk_cadence/sky130_release_0.1.0/cells/cap_vpp_04p4x04p6_l1m1m2_noshield/sky130_fd_pr__cap_vpp_04p4x04p6_l1m1m2_noshield.model.spice
Reading file: 
        /home/eda/edk_cadence/sky130_release_0.1.0/cells/cap_vpp_11p5x11p7_l1m1m2_noshield/sky130_fd_pr__cap_vpp_11p5x11p7_l1m1m2_noshield.model.spice
Reading file: 
        /home/eda/edk_cadence/sky130_release_0.1.0/cells/cap_vpp_01p8x01p8_m1m2_noshield/sky130_fd_pr__cap_vpp_01p8x01p8_m1m2_noshield.model.spice
Reading file: 
        /home/eda/edk_cadence/sky130_release_0.1.0/cells/cap_vpp_08p6x07p8_m1m2_shieldl1/sky130_fd_pr__cap_vpp_08p6x07p8_m1m2_shieldl1.model.spice
Reading file: 
        /home/eda/edk_cadence/sky130_release_0.1.0/cells/cap_vpp_04p4x04p6_m1m2_shieldl1/sky130_fd_pr__cap_vpp_04p4x04p6_m1m2_shieldl1.model.spice
Reading file: 
        /home/eda/edk_cadence/sky130_release_0.1.0/cells/cap_vpp_11p5x11p7_m1m2_shieldl1/sky130_fd_pr__cap_vpp_11p5x11p7_m1m2_shieldl1.model.spice
Reading file: 
        /home/eda/edk_cadence/sky130_release_0.1.0/cells/cap_vpp_08p6x07p8_l1m1m2_shieldpo_floatm3/sky130_fd_pr__cap_vpp_08p6x07p8_l1m1m2_shieldpo_floatm3.model.spice
Reading file: 
        /home/eda/edk_cadence/sky130_release_0.1.0/cells/cap_vpp_04p4x04p6_l1m1m2_shieldpo_floatm3/sky130_fd_pr__cap_vpp_04p4x04p6_l1m1m2_shieldpo_floatm3.model.spice
Reading file: 
        /home/eda/edk_cadence/sky130_release_0.1.0/cells/cap_vpp_11p5x11p7_l1m1m2_shieldpom3/sky130_fd_pr__cap_vpp_11p5x11p7_l1m1m2_shieldpom3.model.spice
Reading file: 
        /home/eda/edk_cadence/sky130_release_0.1.0/cells/cap_vpp_03p9x03p9_m1m2_shieldl1_floatm3/sky130_fd_pr__cap_vpp_03p9x03p9_m1m2_shieldl1_floatm3.model.spice
Reading file: 
        /home/eda/edk_cadence/sky130_release_0.1.0/cells/cap_vpp_04p4x04p6_l1m1m2_noshield/sky130_fd_pr__cap_vpp_04p4x04p6_l1m1m2_noshield_o1.model.spice
Reading file: 
        /home/eda/edk_cadence/sky130_release_0.1.0/cells/cap_vpp_08p6x07p8_m1m2_noshield/sky130_fd_pr__cap_vpp_08p6x07p8_m1m2_noshield.model.spice
Reading file: 
        /home/eda/edk_cadence/sky130_release_0.1.0/cells/cap_vpp_04p4x04p6_m1m2_noshield/sky130_fd_pr__cap_vpp_04p4x04p6_m1m2_noshield_o2.model.spice
Reading file: 
        /home/eda/edk_cadence/sky130_release_0.1.0/cells/cap_vpp_02p4x04p6_m1m2_noshield/sky130_fd_pr__cap_vpp_02p4x04p6_m1m2_noshield.model.spice
Reading file: 
        /home/eda/edk_cadence/sky130_release_0.1.0/cells/cap_vpp_04p4x04p6_m1m2_noshield/sky130_fd_pr__cap_vpp_04p4x04p6_m1m2_noshield.model.spice
Reading file: 
        /home/eda/edk_cadence/sky130_release_0.1.0/cells/cap_vpp_11p5x11p7_m1m2_noshield/sky130_fd_pr__cap_vpp_11p5x11p7_m1m2_noshield.model.spice
Reading file: 
        /home/eda/edk_cadence/sky130_release_0.1.0/cells/npn_05v5/sky130_fd_pr__npn_05v5__t.corner.spice
Reading file: 
        /home/eda/edk_cadence/sky130_release_0.1.0/cells/npn_05v5/sky130_fd_pr__npn_05v5_W1p00L1p00.model.spice
Reading file: 
        /home/eda/edk_cadence/sky130_release_0.1.0/cells/npn_05v5/sky130_fd_pr__npn_05v5_W1p00L2p00.model.spice
Reading file: 
        /home/eda/edk_cadence/sky130_release_0.1.0/cells/npn_11v0/sky130_fd_pr__npn_11v0_W1p00L1p00.model.spice
Reading file: 
        /home/eda/edk_cadence/sky130_release_0.1.0/cells/pnp_05v5/sky130_fd_pr__pnp_05v5_W3p40L3p40.model.spice
Reading file: 
        /home/eda/edk_cadence/sky130_release_0.1.0/models/corners/tt/specialized_cells.spice
Reading file: 
        /home/eda/edk_cadence/sky130_release_0.1.0/cells/special_nfet_latch/sky130_fd_pr__special_nfet_latch__mismatch.corner.spice
Reading file: 
        /home/eda/edk_cadence/sky130_release_0.1.0/cells/special_nfet_pass/sky130_fd_pr__special_nfet_pass__mismatch.corner.spice
Reading file: 
        /home/eda/edk_cadence/sky130_release_0.1.0/cells/special_nfet_pass_flash/sky130_fd_pr__special_nfet_pass_flash__mismatch.corner.spice
Reading file: 
        /home/eda/edk_cadence/sky130_release_0.1.0/cells/special_pfet_pass/sky130_fd_pr__special_pfet_pass__mismatch.corner.spice
Reading file: 
        /home/eda/edk_cadence/sky130_release_0.1.0/cells/special_nfet_pass_lvt/sky130_fd_pr__special_nfet_pass_lvt__tt.corner.spice
Reading file: 
        /home/eda/edk_cadence/sky130_release_0.1.0/cells/special_nfet_pass_lvt/sky130_fd_pr__special_nfet_pass_lvt.pm3.spice
Reading file:  /home/eda/edk_cadence/sky130_release_0.1.0/models/all.spice
Reading file: 
        /home/eda/edk_cadence/sky130_release_0.1.0/models/parameters/lod.spice
Reading file: 
        /home/eda/edk_cadence/sky130_release_0.1.0/models/parasitics/sky130_fd_pr__model__parasitic__diode_ps2nw.model.spice
Reading file: 
        /home/eda/edk_cadence/sky130_release_0.1.0/cells/diode_pw2nd_05v5/sky130_fd_pr__diode_pw2nd_05v5.model.spice
Reading file: 
        /home/eda/edk_cadence/sky130_release_0.1.0/cells/diode_pd2nw_05v5/sky130_fd_pr__diode_pd2nw_05v5.model.spice
Reading file: 
        /home/eda/edk_cadence/sky130_release_0.1.0/cells/diode_pd2nw_05v5_hvt/sky130_fd_pr__diode_pd2nw_05v5_hvt.model.spice
Reading file: 
        /home/eda/edk_cadence/sky130_release_0.1.0/cells/diode_pw2nd_11v0/sky130_fd_pr__diode_pw2nd_11v0.model.spice
Reading file: 
        /home/eda/edk_cadence/sky130_release_0.1.0/cells/diode_pd2nw_11v0/sky130_fd_pr__diode_pd2nw_11v0.model.spice
Reading file: 
        /home/eda/edk_cadence/sky130_release_0.1.0/cells/diode_pw2nd_05v5_nvt/sky130_fd_pr__diode_pw2nd_05v5_nvt.model.spice
Reading file: 
        /home/eda/edk_cadence/sky130_release_0.1.0/cells/diode_pw2nd_05v5_lvt/sky130_fd_pr__diode_pw2nd_05v5_lvt.model.spice
Reading file: 
        /home/eda/edk_cadence/sky130_release_0.1.0/cells/diode_pd2nw_05v5_lvt/sky130_fd_pr__diode_pd2nw_05v5_lvt.model.spice
Reading file: 
        /home/eda/edk_cadence/sky130_release_0.1.0/models/parasitics/sky130_fd_pr__model__parasitic__diode_pw2dn.model.spice
Reading file: 
        /home/eda/edk_cadence/sky130_release_0.1.0/models/parasitics/sky130_fd_pr__model__parasitic__diode_ps2dn.model.spice
Reading file: 
        /home/eda/edk_cadence/sky130_release_0.1.0/cells/pfet_g5v0d16v0/sky130_fd_pr__pfet_g5v0d16v0__parasitic__diode_pw2dn.model.spice
Reading file: 
        /home/eda/edk_cadence/sky130_release_0.1.0/cells/pnp_05v5/sky130_fd_pr__pnp_05v5_W0p68L0p68.model.spice
Reading file: 
        /home/eda/edk_cadence/sky130_release_0.1.0/cells/pfet_g5v0d16v0/sky130_fd_pr__pfet_g5v0d16v0.pm3.spice
Reading file: 
        /home/eda/edk_cadence/sky130_release_0.1.0/cells/pfet_g5v0d16v0/sky130_fd_pr__pfet_g5v0d16v0__subcircuit.pm3.spice
Reading file: 
        /home/eda/edk_cadence/sky130_release_0.1.0/cells/cap_var_lvt/sky130_fd_pr__cap_var_lvt.model.spice
Reading file: 
        /home/eda/edk_cadence/sky130_release_0.1.0/cells/cap_vpp_08p6x07p8_l1m1m2_noshield/sky130_fd_pr__cap_vpp_08p6x07p8_l1m1m2_noshield_o1.model.spice
Reading file: 
        /home/eda/edk_cadence/sky130_release_0.1.0/models/capacitors/sky130_fd_pr__model__cap_mim.model.spice
Reading file: 
        /home/eda/edk_cadence/sky130_release_0.1.0/cells/cap_mim_m3/sky130_fd_pr__cap_mim_m3_1.model.spice
Reading file: 
        /home/eda/edk_cadence/sky130_release_0.1.0/cells/cap_mim_m3/sky130_fd_pr__cap_mim_m3_2.model.spice
Reading file: 
        /home/eda/edk_cadence/sky130_release_0.1.0/models/capacitors/sky130_fd_pr__model__cap_vpp_only_mos.model.spice
Reading file: 
        /home/eda/edk_cadence/sky130_release_0.1.0/cells/cap_vpp_04p4x04p6_m1m2_noshield/sky130_fd_pr__cap_vpp_04p4x04p6_m1m2_noshield_o1nhv.model.spice
Reading file: 
        /home/eda/edk_cadence/sky130_release_0.1.0/cells/cap_vpp_04p4x04p6_m1m2_noshield/sky130_fd_pr__cap_vpp_04p4x04p6_m1m2_noshield_o1phv.model.spice
Reading file: 
        /home/eda/edk_cadence/sky130_release_0.1.0/models/sonos_p/begin_of_life/mm.spice
Reading file: 
        /home/eda/edk_cadence/sky130_release_0.1.0/models/sonos_e/begin_of_life/mm.spice
Reading file:  /home/eda/edk_cadence/sky130_release_0.1.0/models/head.spice
Reading file: 
        /home/eda/edk_cadence/sky130_release_0.1.0/cells/special_nfet_pass/sky130_fd_pr__special_nfet_pass.pm3.spice
Reading file: 
        /home/eda/edk_cadence/sky130_release_0.1.0/cells/special_nfet_latch/sky130_fd_pr__special_nfet_latch.pm3.spice
Reading file: 
        /home/eda/edk_cadence/sky130_release_0.1.0/cells/special_pfet_pass/sky130_fd_pr__special_pfet_pass.pm3.spice
Reading file: 
        /home/eda/edk_cadence/sky130_release_0.1.0/cells/special_nfet_pass_flash/sky130_fd_pr__special_nfet_pass_flash.pm3.spice
Reading file: 
        /home/eda/edk_cadence/sky130_release_0.1.0/models/capacitors/sky130_fd_pr__model__cap_vpp_only_pq.model.spice
Reading file: 
        /home/eda/edk_cadence/sky130_release_0.1.0/cells/cap_vpp_08p6x07p8_m1m2m3_shieldl1/sky130_fd_pr__cap_vpp_08p6x07p8_m1m2m3_shieldl1.model.spice
Reading file: 
        /home/eda/edk_cadence/sky130_release_0.1.0/cells/cap_vpp_04p4x04p6_m1m2m3_shieldl1/sky130_fd_pr__cap_vpp_04p4x04p6_m1m2m3_shieldl1.model.spice
Reading file: 
        /home/eda/edk_cadence/sky130_release_0.1.0/cells/cap_vpp_11p5x11p7_m1m2m3_shieldl1/sky130_fd_pr__cap_vpp_11p5x11p7_m1m2m3_shieldl1.model.spice
Reading file: 
        /home/eda/edk_cadence/sky130_release_0.1.0/cells/cap_vpp_11p5x11p7_l1m1m2m3_shieldm4/sky130_fd_pr__cap_vpp_11p5x11p7_l1m1m2m3_shieldm4.model.spice
Reading file: 
        /home/eda/edk_cadence/sky130_release_0.1.0/cells/cap_vpp_11p5x11p7_l1m1m2m3_shieldpom4/sky130_fd_pr__cap_vpp_11p5x11p7_l1m1m2m3_shieldpom4.model.spice
Reading file: 
        /home/eda/edk_cadence/sky130_release_0.1.0/cells/cap_vpp_06p8x06p1_l1m1m2m3_shieldpom4/sky130_fd_pr__cap_vpp_06p8x06p1_l1m1m2m3_shieldpom4.model.spice
Reading file: 
        /home/eda/edk_cadence/sky130_release_0.1.0/cells/cap_vpp_06p8x06p1_m1m2m3_shieldl1m4/sky130_fd_pr__cap_vpp_06p8x06p1_m1m2m3_shieldl1m4.model.spice
Reading file: 
        /home/eda/edk_cadence/sky130_release_0.1.0/models/capacitors/sky130_fd_pr__model__cap_vpp_only_p.model.spice
Reading file: 
        /home/eda/edk_cadence/sky130_release_0.1.0/cells/cap_vpp_11p5x11p7_l1m1m2m3m4_shieldm5/sky130_fd_pr__cap_vpp_11p5x11p7_l1m1m2m3m4_shieldm5.model.spice
Reading file: 
        /home/eda/edk_cadence/sky130_release_0.1.0/cells/cap_vpp_11p5x11p7_l1m1m2m3m4_shieldpom5/sky130_fd_pr__cap_vpp_11p5x11p7_l1m1m2m3m4_shieldpom5.model.spice
Reading file: 
        /home/eda/edk_cadence/sky130_release_0.1.0/cells/cap_vpp_11p5x11p7_m1m2m3m4_shieldl1m5/sky130_fd_pr__cap_vpp_11p5x11p7_m1m2m3m4_shieldl1m5.model.spice
Reading file: 
        /home/eda/edk_cadence/sky130_release_0.1.0/cells/cap_vpp_11p5x11p7_m1m4_noshield/sky130_fd_pr__cap_vpp_11p5x11p7_m1m4_noshield.model.spice
Reading file: 
        /home/eda/edk_cadence/sky130_release_0.1.0/cells/cap_vpp_11p5x11p7_m1m2m3m4_shieldm5/sky130_fd_pr__cap_vpp_11p5x11p7_m1m2m3m4_shieldm5.model.spice
Reading file: 
        /home/eda/edk_cadence/sky130_release_0.1.0/cells/cap_vpp_08p6x07p8_m1m2m3_shieldl1m5_floatm4/sky130_fd_pr__cap_vpp_08p6x07p8_m1m2m3_shieldl1m5_floatm4.model.spice
Reading file: 
        /home/eda/edk_cadence/sky130_release_0.1.0/cells/cap_vpp_04p4x04p6_m1m2m3_shieldl1m5_floatm4/sky130_fd_pr__cap_vpp_04p4x04p6_m1m2m3_shieldl1m5_floatm4.model.spice
Reading file: 
        /home/eda/edk_cadence/sky130_release_0.1.0/cells/cap_vpp_11p5x11p7_m1m2m3_shieldl1m5_floatm4/sky130_fd_pr__cap_vpp_11p5x11p7_m1m2m3_shieldl1m5_floatm4.model.spice
Reading file: 
        /home/eda/edk_cadence/sky130_release_0.1.0/cells/cap_vpp_11p3x11p8_l1m1m2m3m4_shieldm5/sky130_fd_pr__cap_vpp_11p3x11p8_l1m1m2m3m4_shieldm5_nhv.model.spice
Reading file: 
        /home/eda/edk_cadence/sky130_release_0.1.0/cells/cap_vpp_11p3x11p8_l1m1m2m3m4_shieldm5/sky130_fd_pr__cap_vpp_11p3x11p8_l1m1m2m3m4_shieldm5_nhv__base.model.spice
Reading file: 
        /home/eda/edk_cadence/sky130_release_0.1.0/cells/cap_vpp_11p5x11p7_l1m1m2m3m4_shieldpom5/sky130_fd_pr__cap_vpp_11p5x11p7_l1m1m2m3m4_shieldpom5_x.model.spice
Reading file: 
        /home/eda/edk_cadence/sky130_release_0.1.0/cells/cap_vpp_02p9x06p1_m1m2m3m4_shieldl1/sky130_fd_pr__cap_vpp_02p9x06p1_m1m2m3m4_shieldl1_fingercap2.model.spice
Reading file: 
        /home/eda/edk_cadence/sky130_release_0.1.0/cells/cap_vpp_02p7x11p1_m1m2m3m4_shieldl1/sky130_fd_pr__cap_vpp_02p7x11p1_m1m2m3m4_shieldl1_fingercap.model.spice
Reading file: 
        /home/eda/edk_cadence/sky130_release_0.1.0/cells/cap_vpp_02p7x21p1_m1m2m3m4_shieldl1/sky130_fd_pr__cap_vpp_02p7x21p1_m1m2m3m4_shieldl1_fingercap.model.spice
Reading file: 
        /home/eda/edk_cadence/sky130_release_0.1.0/cells/cap_vpp_02p7x41p1_m1m2m3m4_shieldl1/sky130_fd_pr__cap_vpp_02p7x41p1_m1m2m3m4_shieldl1_fingercap.model.spice
Reading file: 
        /home/eda/edk_cadence/sky130_release_0.1.0/cells/cap_vpp_02p7x06p1_m1m2m3m4_shieldl1/sky130_fd_pr__cap_vpp_02p7x06p1_m1m2m3m4_shieldl1_fingercap.model.spice
Reading file: 
        /home/eda/edk_cadence/sky130_release_0.1.0/cells/cap_vpp_11p3x11p3_m1m2m3m4_shieldl1/sky130_fd_pr__cap_vpp_11p3x11p3_m1m2m3m4_shieldl1_wafflecap.model.spice
Reading file: 
        /home/eda/edk_cadence/sky130_release_0.1.0/cells/cap_vpp_05p9x05p9_m1m2m3m4_shieldl1/sky130_fd_pr__cap_vpp_05p9x05p9_m1m2m3m4_shieldl1_wafflecap.model.spice
Reading file: 
        /home/eda/edk_cadence/sky130_release_0.1.0/cells/cap_vpp_44p7x23p1_pol1m1m2m3m4m5_noshield/sky130_fd_pr__cap_vpp_44p7x23p1_pol1m1m2m3m4m5_noshield.model.spice
Reading file: 
        /home/eda/edk_cadence/sky130_release_0.1.0/models/sky130_fd_pr__model__linear.model.spice
Reading file: 
        /home/eda/edk_cadence/sky130_release_0.1.0/models/parasitics/sky130_fd_pr__model__parasitic__res_po.model.spice
Reading file: 
        /home/eda/edk_cadence/sky130_release_0.1.0/cells/res_xhigh_po/sky130_fd_pr__res_xhigh_po.model.spice
Reading file: 
        /home/eda/edk_cadence/sky130_release_0.1.0/cells/res_high_po/sky130_fd_pr__res_high_po.model.spice
Reading file: 
        /home/eda/edk_cadence/sky130_release_0.1.0/cells/res_xhigh_po/sky130_fd_pr__res_xhigh_po_0p35.model.spice
Reading file: 
        /home/eda/edk_cadence/sky130_release_0.1.0/cells/res_xhigh_po/sky130_fd_pr__res_xhigh_po_0p69.model.spice
Reading file: 
        /home/eda/edk_cadence/sky130_release_0.1.0/cells/res_xhigh_po/sky130_fd_pr__res_xhigh_po_1p41.model.spice
Reading file: 
        /home/eda/edk_cadence/sky130_release_0.1.0/cells/res_xhigh_po/sky130_fd_pr__res_xhigh_po_2p85.model.spice
Reading file: 
        /home/eda/edk_cadence/sky130_release_0.1.0/cells/res_xhigh_po/sky130_fd_pr__res_xhigh_po_5p73.model.spice
Reading file: 
        /home/eda/edk_cadence/sky130_release_0.1.0/cells/res_xhigh_po/sky130_fd_pr__res_xhigh_po__base.model.spice
Reading file: 
        /home/eda/edk_cadence/sky130_release_0.1.0/cells/res_high_po/sky130_fd_pr__res_high_po_0p35.model.spice
Reading file: 
        /home/eda/edk_cadence/sky130_release_0.1.0/cells/res_high_po/sky130_fd_pr__res_high_po_0p69.model.spice
Reading file: 
        /home/eda/edk_cadence/sky130_release_0.1.0/cells/res_high_po/sky130_fd_pr__res_high_po_1p41.model.spice
Reading file: 
        /home/eda/edk_cadence/sky130_release_0.1.0/cells/res_high_po/sky130_fd_pr__res_high_po_2p85.model.spice
Reading file: 
        /home/eda/edk_cadence/sky130_release_0.1.0/cells/res_high_po/sky130_fd_pr__res_high_po_5p73.model.spice
Reading file: 
        /home/eda/edk_cadence/sky130_release_0.1.0/cells/rf_nfet_g5v0d10v5/sky130_fd_pr__rf_nfet_g5v0d10v5.pm3.spice
Reading file: 
        /home/eda/edk_cadence/sky130_release_0.1.0/cells/rf_nfet_01v8_lvt/sky130_fd_pr__rf_nfet_01v8_lvt.pm3.spice
Reading file: 
        /home/eda/edk_cadence/sky130_release_0.1.0/cells/rf_nfet_01v8/sky130_fd_pr__rf_nfet_01v8.pm3.spice
Reading file: 
        /home/eda/edk_cadence/sky130_release_0.1.0/cells/rf_pfet_01v8/sky130_fd_pr__rf_pfet_01v8.pm3.spice
Reading file: 
        /home/eda/edk_cadence/sky130_release_0.1.0/cells/rf_pfet_01v8_mvt/sky130_fd_pr__rf_pfet_01v8_mvt.pm3.spice
Reading file: 
        /home/eda/edk_cadence/sky130_release_0.1.0/models/corners/tt/rf.spice
Reading file: 
        /home/eda/edk_cadence/sky130_release_0.1.0/cells/rf_nfet_01v8/sky130_fd_pr__rf_nfet_01v8_b__tt.corner.spice
Reading file: 
        /home/eda/edk_cadence/sky130_release_0.1.0/cells/rf_nfet_01v8/sky130_fd_pr__rf_nfet_01v8_b.pm3.spice
Reading file: 
        /home/eda/edk_cadence/sky130_release_0.1.0/cells/rf_nfet_01v8_lvt/sky130_fd_pr__rf_nfet_01v8_lvt_b__tt.corner.spice
Reading file: 
        /home/eda/edk_cadence/sky130_release_0.1.0/cells/rf_nfet_01v8_lvt/sky130_fd_pr__rf_nfet_01v8_lvt_b.pm3.spice
Reading file: 
        /home/eda/edk_cadence/sky130_release_0.1.0/cells/rf_nfet_g5v0d10v5/sky130_fd_pr__rf_nfet_g5v0d10v5_b__tt.corner.spice
Reading file: 
        /home/eda/edk_cadence/sky130_release_0.1.0/cells/rf_nfet_g5v0d10v5/sky130_fd_pr__rf_nfet_g5v0d10v5_b.pm3.spice
Reading file: 
        /home/eda/edk_cadence/sky130_release_0.1.0/cells/rf_pfet_01v8/sky130_fd_pr__rf_pfet_01v8_b__tt.corner.spice
Reading file: 
        /home/eda/edk_cadence/sky130_release_0.1.0/cells/rf_pfet_01v8/sky130_fd_pr__rf_pfet_01v8_b.pm3.spice
Reading file: 
        /home/eda/edk_cadence/sky130_release_0.1.0/cells/rf_nfet_01v8/sky130_fd_pr__rf_nfet_01v8__mismatch.corner.spice
Reading file: 
        /home/eda/edk_cadence/sky130_release_0.1.0/cells/rf_nfet_01v8_lvt/sky130_fd_pr__rf_nfet_01v8_lvt__mismatch.corner.spice
Reading file: 
        /home/eda/edk_cadence/sky130_release_0.1.0/cells/rf_nfet_g5v0d10v5/sky130_fd_pr__rf_nfet_g5v0d10v5__mismatch.corner.spice
Reading file: 
        /home/eda/edk_cadence/sky130_release_0.1.0/cells/rf_pfet_01v8/sky130_fd_pr__rf_pfet_01v8__mismatch.corner.spice
Reading file: 
        /home/eda/edk_cadence/sky130_release_0.1.0/cells/rf_pfet_01v8_mvt/sky130_fd_pr__rf_pfet_01v8_mvt__tt_discrete.corner.spice
Reading file: 
        /home/eda/edk_cadence/sky130_release_0.1.0/cells/pfet_01v8_mvt/sky130_fd_pr__pfet_01v8_mvt.pm3.spice
Reading file: 
        /home/eda/edk_cadence/sky130_release_0.1.0/cells/rf_pfet_01v8_mvt/sky130_fd_pr__rf_pfet_01v8_mvt__mismatch.corner.spice
Reading file: 
        /home/eda/edk_cadence/sky130_release_0.1.0/cells/pfet_20v0/sky130_fd_pr__pfet_20v0__tt_discrete.corner.spice
Reading file: 
        /home/eda/edk_cadence/sky130_release_0.1.0/cells/pfet_20v0/sky130_fd_pr__pfet_20v0__subcircuit.pm3.spice
Reading file: 
        /home/eda/edk_cadence/sky130_release_0.1.0/cells/pfet_20v0/sky130_fd_pr__pfet_20v0__parasitic__diode_pw2dn.model.spice
Reading file: 
        /home/eda/edk_cadence/sky130_release_0.1.0/cells/nfet_20v0/sky130_fd_pr__nfet_20v0__tt_discrete.corner.spice
Reading file: 
        /home/eda/edk_cadence/sky130_release_0.1.0/cells/nfet_20v0/sky130_fd_pr__nfet_20v0__subcircuit.pm3.spice
Reading file: 
        /home/eda/edk_cadence/sky130_release_0.1.0/models/parasitics/sky130_fd_pr__model__parasitic__diode_pw2dn__extended_drain.model.spice
Reading file: 
        /home/eda/edk_cadence/sky130_release_0.1.0/cells/diode_pw2nd_05v5/sky130_fd_pr__diode_pw2nd_05v5__extended_drain.model.spice
Reading file: 
        /home/eda/edk_cadence/sky130_release_0.1.0/cells/nfet_20v0_iso/sky130_fd_pr__nfet_20v0_iso__subcircuit.pm3.spice
Reading file: 
        /home/eda/edk_cadence/sky130_release_0.1.0/models/parasitics/sky130_fd_pr__model__parasitic__diode_ps2dn__extended_drain.model.spice
Reading file: 
        /home/eda/edk_cadence/sky130_release_0.1.0/cells/nfet_20v0_reverse_iso/sky130_fd_pr__nfet_20v0_reverse_iso__subcircuit.pm3.spice
Reading file: 
        /home/eda/edk_cadence/sky130_release_0.1.0/cells/nfet_20v0_zvt/sky130_fd_pr__nfet_20v0_zvt__tt_discrete.corner.spice
Reading file: 
        /home/eda/edk_cadence/sky130_release_0.1.0/cells/nfet_20v0_zvt/sky130_fd_pr__nfet_20v0_zvt__subcircuit.pm3.spice
Reading file: 
        /home/eda/edk_cadence/sky130_release_0.1.0/cells/nfet_20v0_zvt/sky130_fd_pr__nfet_20v0_zvt__parasitic__diode_ps2dn__extended_drain.model.spice
Reading file: 
        /home/eda/edk_cadence/sky130_release_0.1.0/cells/nfet_20v0_nvt/sky130_fd_pr__nfet_20v0_nvt__tt_discrete.corner.spice
Reading file: 
        /home/eda/edk_cadence/sky130_release_0.1.0/cells/nfet_20v0_nvt/sky130_fd_pr__nfet_20v0_nvt__subcircuit.pm3.spice
Reading file: 
        /home/eda/edk_cadence/sky130_release_0.1.0/cells/nfet_20v0_nvt/sky130_fd_pr__nfet_20v0_nvt__parasitic__diode_ps2dn.model.spice
Reading file: 
        /home/me59/amplifier_runner/q5-bp-dual-input-hp-output-sink-trial-0146/dummy_neural_amp.scs
Time for NDB Parsing: CPU = 766.571 ms, elapsed = 991.074 ms.
Time accumulated: CPU = 833.551 ms, elapsed = 991.083 ms.
Peak resident memory used = 87.3 Mbytes.

Reading link: 
        /home/eda/cadence/spectre191/tools.lnx86/spectre/etc/ahdl/discipline.h
Reading file: 
        /home/eda/cadence/spectre191/tools.lnx86/spectre/etc/ahdl/disciplines.vams
Reading link: 
        /home/eda/cadence/spectre191/tools.lnx86/spectre/etc/ahdl/constants.h
Reading file: 
        /home/eda/cadence/spectre191/tools.lnx86/spectre/etc/ahdl/constants.vams
Compiling ahdlcmi module library for bsource_ceb90a.
Finished compilation in 1.32 s (elapsed) for bsource_ceb90a.
Installed compiled interface for bsource_ceb90a.
Compiling ahdlcmi module library for bsource_d18ca2.
Finished compilation in 1.29 s (elapsed) for bsource_d18ca2.
Installed compiled interface for bsource_d18ca2.
Time for Elaboration: CPU = 148.722 ms, elapsed = 2.75739 s.
Time accumulated: CPU = 982.398 ms, elapsed = 3.7486 s.
Peak resident memory used = 109 Mbytes.


Notice from spectre in `res_high_po_5p73':`XDUT.RE1B', in
        `dummy_neural_amp':`XDUT', during hierarchy flattening.
    XDUT.RE1B.c2: Terminals are connected together (to node `0').
Notice from spectre in `res_high_po_5p73':`XDUT.RE2B', in
        `dummy_neural_amp':`XDUT', during hierarchy flattening.
    XDUT.RE2B.c2: Terminals are connected together (to node `0').
Notice from spectre in `res_high_po_5p73':`XDUT.RBUF', in
        `dummy_neural_amp':`XDUT', during hierarchy flattening.
    XDUT.RBUF.c2: Terminals are connected together (to node `0').
Notice from spectre in `res_high_po_5p73':`XDUT.RQ5B', in
        `dummy_neural_amp':`XDUT', during hierarchy flattening.
    XDUT.RQ5B.c2: Terminals are connected together (to node `0').
Notice from spectre in `res_high_po_5p73':`XDUT.REQ5', in
        `dummy_neural_amp':`XDUT', during hierarchy flattening.
    XDUT.REQ5.c2: Terminals are connected together (to node `0').
        Further occurrences of this notice will be suppressed (except in log
        file).


Time for EDB Visiting: CPU = 7.441 ms, elapsed = 7.44081 ms.
Time accumulated: CPU = 990.093 ms, elapsed = 3.75629 s.
Peak resident memory used = 109 Mbytes.


Warning from spectre during initial setup.
    WARNING (CMI-2275): XDUT.Q3.sky130_fd_pr__npn_05v5_W1p00L1p00__model:
        Temperature effects have made `rbm' less than `minr'.
Notice from spectre during initial setup.
    XDUT.Q3.sky130_fd_pr__npn_05v5_W1p00L1p00__model: `rbm' is less than
        `minr'.  `minr' is used.

Global user options:
             rawfmt = psfxl

Scoped user options:

Circuit inventory:
              nodes 103
                bjt 5     
     bsource_ceb90a 17    
     bsource_d18ca2 17    
          capacitor 77    
           resistor 70    
            vsource 3     

Analysis and control statement inventory:
                 ac 1     

Output statements:
             .probe 0     
           .measure 0     
               save 1     


Notice from spectre during initial setup.
    70 resistors are changed to resistance form because their value are less
        than 'rthresh'.

Time for parsing: CPU = 7.593 ms, elapsed = 40.333 ms.
Time accumulated: CPU = 997.879 ms, elapsed = 3.79682 s.
Peak resident memory used = 111 Mbytes.

~~~~~~~~~~~~~~~~~~~~~~
Pre-Simulation Summary
~~~~~~~~~~~~~~~~~~~~~~
~~~~~~~~~~~~~~~~~~~~~~

********************************************
AC Analysis `ac': freq = (100 mHz -> 10 MHz)
********************************************
DC simulation time: CPU = 3.693 ms, elapsed = 2.78378 ms.

Opening the PSF file
        /home/me59/amplifier_runner/q5-bp-dual-input-hp-output-sink-trial-0146/run/ac_psf/ac.ac
        ...
......9......8......7......6......5......4......3......2......1......0
Accumulated DC solution time =            0 s.
Intrinsic ac analysis time =              0 s.
Total time required for ac analysis `ac': CPU = 37.433 ms, elapsed = 50.616
        ms.
Time accumulated: CPU = 1.04507 s, elapsed = 3.85719 s.
Peak resident memory used = 113 Mbytes.


Aggregate audit (10:10:26 AM, Mon Jun 8, 2026):
Time used: CPU = 1.13 s, elapsed = 3.98 s, util. = 28.4%.
Time spent in licensing: elapsed = 119 ms.
Peak memory used = 114 Mbytes.
Simulation started at: 10:10:22 AM, Mon Jun 8, 2026, ended at: 10:10:26 AM, Mon
        Jun 8, 2026, with elapsed time (wall clock): 3.98 s.
spectre completes with 0 errors, 1 warning, and 8 notices.

Spectre (R) Circuit Simulator
Version 19.1.0.162.isr1 64bit -- 14 Oct 2019
Copyright (C) 1989-2019 Cadence Design Systems, Inc. All rights reserved
        worldwide. Cadence and Spectre are registered trademarks of Cadence
        Design Systems, Inc. All others are the property of their respective
        holders.

Includes RSA BSAFE(R) Cryptographic or Security Protocol Software from RSA
        Security, Inc.

User: me59   Host: dice   HostID: B4A34EA0   PID: 98469
Memory  available: 107.8744 GB  physical: 269.9321 GB
Linux   : CentOS Linux release 7.9.2009 (Core)
CPU Type: Intel(R) Xeon(R) Gold 6242R CPU @ 3.10GHz
        Socket: Processors [Frequency] (Hyperthreaded Processor)
        0:       0 [2015.8] ( 40 ),  1 [1998.8] ( 41 ),  2 [1218.9] ( 42 )
                 3 [1263.9] ( 43 ),  4 [1200.0] ( 44 ),  5 [1200.0] ( 45 )
                 6 [1200.2] ( 46 ),  7 [1200.0] ( 47 ),  8 [1210.6] ( 48 )
                 9 [1241.2] ( 49 ), 10 [1221.9] ( 50 ), 11 [1362.1] ( 51 )
                12 [1376.3] ( 52 ), 13 [1200.2] ( 53 ), 14 [1200.0] ( 54 )
                15 [1289.3] ( 55 ), 16 [1200.0] ( 56 ), 17 [1226.1] ( 57 )
                18 [1200.0] ( 58 ), 19 [1255.4] ( 59 )
        1:      20 [1200.2] ( 60 ), 21 [2099.8] ( 61 ), 22 [1292.1] ( 62 )
                23 [2305.3] ( 63 ), 24 [1212.5] ( 64 ), 25 [1499.5] ( 65 )
                26 [1200.2] ( 66 ), 27 [1200.0] ( 67 ), 28 [1487.0] ( 68 )
                29 [1200.0] ( 69 ), 30 [1200.0] ( 70 ), 31 [1396.0] ( 71 )
                32 [1395.6] ( 72 ), 33 [1252.4] ( 73 ), 34 [1400.0] ( 74 )
                35 [1200.0] ( 75 ), 36 [1200.2] ( 76 ), 37 [3799.9] ( 77 )
                38 [1200.2] ( 78 ), 39 [1200.0] ( 79 )
        
System load averages (1min, 5min, 15min) : 5.1 %, 5.1 %, 5.6 %
Hyperthreading is enabled


Simulating
        `/home/me59/amplifier_runner/q5-bp-dual-input-hp-output-sink-trial-0146/run/tb_tran.scs'
        on dice at 10:10:27 AM, Mon Jun 8, 2026 (process id: 98469).
Current working directory:
        /home/me59/amplifier_runner/q5-bp-dual-input-hp-output-sink-trial-0146/run
Command line:
    /home/eda/cadence/spectre191/tools.lnx86/bin/spectre -64  \
        /home/me59/amplifier_runner/q5-bp-dual-input-hp-output-sink-trial-0146/run/tb_tran.scs
        \
        +escchars +log  \
        /home/me59/amplifier_runner/q5-bp-dual-input-hp-output-sink-trial-0146/run/spectre_tran.log
        \
        -format psfxl -raw  \
        /home/me59/amplifier_runner/q5-bp-dual-input-hp-output-sink-trial-0146/run/tran_psf
        \
        +lqtimeout 60
Reading file: 
        /home/me59/amplifier_runner/q5-bp-dual-input-hp-output-sink-trial-0146/run/tb_tran.scs
Reading file: 
        /home/eda/cadence/spectre191/tools.lnx86/spectre/etc/configs/spectre.cfg
Reading file: 
        /home/eda/edk_cadence/sky130_release_0.1.0/models/sky130.lib.spice
Reading file: 
        /home/eda/edk_cadence/sky130_release_0.1.0/cells/nfet_01v8/sky130_fd_pr__nfet_01v8__tt.corner.spice
Reading file: 
        /home/eda/edk_cadence/sky130_release_0.1.0/cells/nfet_01v8/sky130_fd_pr__nfet_01v8__tt.pm3.spice
Reading file: 
        /home/eda/edk_cadence/sky130_release_0.1.0/cells/nfet_01v8_lvt/sky130_fd_pr__nfet_01v8_lvt__tt.corner.spice
Reading file: 
        /home/eda/edk_cadence/sky130_release_0.1.0/cells/nfet_01v8_lvt/sky130_fd_pr__nfet_01v8_lvt__tt.pm3.spice
Reading file: 
        /home/eda/edk_cadence/sky130_release_0.1.0/cells/pfet_01v8/sky130_fd_pr__pfet_01v8__tt.corner.spice
Reading file: 
        /home/eda/edk_cadence/sky130_release_0.1.0/cells/pfet_01v8/sky130_fd_pr__pfet_01v8__tt.pm3.spice
Reading file: 
        /home/eda/edk_cadence/sky130_release_0.1.0/cells/nfet_03v3_nvt/sky130_fd_pr__nfet_03v3_nvt__tt.corner.spice
Reading file: 
        /home/eda/edk_cadence/sky130_release_0.1.0/cells/nfet_03v3_nvt/sky130_fd_pr__nfet_03v3_nvt.pm3.spice
Reading file: 
        /home/eda/edk_cadence/sky130_release_0.1.0/cells/nfet_05v0_nvt/sky130_fd_pr__nfet_05v0_nvt__tt.corner.spice
Reading file: 
        /home/eda/edk_cadence/sky130_release_0.1.0/cells/nfet_05v0_nvt/sky130_fd_pr__nfet_05v0_nvt.pm3.spice
Reading file: 
        /home/eda/edk_cadence/sky130_release_0.1.0/cells/esd_nfet_01v8/sky130_fd_pr__esd_nfet_01v8__tt.corner.spice
Reading file: 
        /home/eda/edk_cadence/sky130_release_0.1.0/cells/esd_nfet_01v8/sky130_fd_pr__esd_nfet_01v8.pm3.spice
Reading file: 
        /home/eda/edk_cadence/sky130_release_0.1.0/cells/pfet_01v8_lvt/sky130_fd_pr__pfet_01v8_lvt__tt.corner.spice
Reading file: 
        /home/eda/edk_cadence/sky130_release_0.1.0/cells/pfet_01v8_lvt/sky130_fd_pr__pfet_01v8_lvt__tt.pm3.spice
Reading file: 
        /home/eda/edk_cadence/sky130_release_0.1.0/cells/pfet_01v8_hvt/sky130_fd_pr__pfet_01v8_hvt__tt.corner.spice
Reading file: 
        /home/eda/edk_cadence/sky130_release_0.1.0/cells/pfet_01v8_hvt/sky130_fd_pr__pfet_01v8_hvt__tt.pm3.spice
Reading file: 
        /home/eda/edk_cadence/sky130_release_0.1.0/cells/esd_pfet_g5v0d10v5/sky130_fd_pr__esd_pfet_g5v0d10v5__tt.corner.spice
Reading file: 
        /home/eda/edk_cadence/sky130_release_0.1.0/cells/esd_pfet_g5v0d10v5/sky130_fd_pr__esd_pfet_g5v0d10v5.pm3.spice
Reading file: 
        /home/eda/edk_cadence/sky130_release_0.1.0/cells/pfet_g5v0d10v5/sky130_fd_pr__pfet_g5v0d10v5__tt.corner.spice
Reading file: 
        /home/eda/edk_cadence/sky130_release_0.1.0/cells/pfet_g5v0d10v5/sky130_fd_pr__pfet_g5v0d10v5__tt.pm3.spice
Reading file: 
        /home/eda/edk_cadence/sky130_release_0.1.0/cells/pfet_g5v0d16v0/sky130_fd_pr__pfet_g5v0d16v0__tt.corner.spice
Reading file: 
        /home/eda/edk_cadence/sky130_release_0.1.0/cells/nfet_g5v0d10v5/sky130_fd_pr__nfet_g5v0d10v5__tt.corner.spice
Reading file: 
        /home/eda/edk_cadence/sky130_release_0.1.0/cells/nfet_g5v0d10v5/sky130_fd_pr__nfet_g5v0d10v5__tt.pm3.spice
Reading file: 
        /home/eda/edk_cadence/sky130_release_0.1.0/cells/nfet_g5v0d16v0/sky130_fd_pr__nfet_g5v0d16v0__tt_discrete.corner.spice
Reading file: 
        /home/eda/edk_cadence/sky130_release_0.1.0/cells/nfet_g5v0d16v0/sky130_fd_pr__nfet_g5v0d16v0__subcircuit.pm3.spice
Reading file: 
        /home/eda/edk_cadence/sky130_release_0.1.0/cells/nfet_g5v0d16v0/sky130_fd_pr__nfet_g5v0d16v0.pm3.spice
Reading file: 
        /home/eda/edk_cadence/sky130_release_0.1.0/cells/esd_nfet_g5v0d10v5/sky130_fd_pr__esd_nfet_g5v0d10v5__tt.corner.spice
Reading file: 
        /home/eda/edk_cadence/sky130_release_0.1.0/cells/esd_nfet_g5v0d10v5/sky130_fd_pr__esd_nfet_g5v0d10v5.pm3.spice
Reading file: 
        /home/eda/edk_cadence/sky130_release_0.1.0/models/corners/tt/nonfet.spice
Reading file: 
        /home/eda/edk_cadence/sky130_release_0.1.0/cells/nfet_01v8/sky130_fd_pr__nfet_01v8__mismatch.corner.spice
Reading file: 
        /home/eda/edk_cadence/sky130_release_0.1.0/cells/pfet_01v8/sky130_fd_pr__pfet_01v8__mismatch.corner.spice
Reading file: 
        /home/eda/edk_cadence/sky130_release_0.1.0/cells/nfet_01v8_lvt/sky130_fd_pr__nfet_01v8_lvt__mismatch.corner.spice
Reading file: 
        /home/eda/edk_cadence/sky130_release_0.1.0/cells/pfet_01v8_lvt/sky130_fd_pr__pfet_01v8_lvt__mismatch.corner.spice
Reading file: 
        /home/eda/edk_cadence/sky130_release_0.1.0/cells/pfet_01v8_hvt/sky130_fd_pr__pfet_01v8_hvt__mismatch.corner.spice
Reading file: 
        /home/eda/edk_cadence/sky130_release_0.1.0/cells/nfet_g5v0d10v5/sky130_fd_pr__nfet_g5v0d10v5__mismatch.corner.spice
Reading file: 
        /home/eda/edk_cadence/sky130_release_0.1.0/cells/pfet_g5v0d10v5/sky130_fd_pr__pfet_g5v0d10v5__mismatch.corner.spice
Reading file: 
        /home/eda/edk_cadence/sky130_release_0.1.0/cells/nfet_05v0_nvt/sky130_fd_pr__nfet_05v0_nvt__mismatch.corner.spice
Reading file: 
        /home/eda/edk_cadence/sky130_release_0.1.0/cells/nfet_03v3_nvt/sky130_fd_pr__nfet_03v3_nvt__mismatch.corner.spice
Reading file: 
        /home/eda/edk_cadence/sky130_release_0.1.0/models/r+c/res_typical__cap_typical.spice
Reading file: 
        /home/eda/edk_cadence/sky130_release_0.1.0/models/sky130_fd_pr__model__r+c.model.spice
Reading file: 
        /home/eda/edk_cadence/sky130_release_0.1.0/models/r+c.mrp1monte.spice
Reading file: 
        /home/eda/edk_cadence/sky130_release_0.1.0/cells/res_generic_nd/sky130_fd_pr__res_generic_nd.model.spice
Reading file: 
        /home/eda/edk_cadence/sky130_release_0.1.0/cells/res_generic_pd/sky130_fd_pr__res_generic_pd.model.spice
Reading file: 
        /home/eda/edk_cadence/sky130_release_0.1.0/models/parameters/typical.spice
Reading file: 
        /home/eda/edk_cadence/sky130_release_0.1.0/models/r+c/res_typical__cap_typical__lin.spice
Reading file: 
        /home/eda/edk_cadence/sky130_release_0.1.0/models/capacitors/sky130_fd_pr__model__cap_vpp.model.spice
Reading file: 
        /home/eda/edk_cadence/sky130_release_0.1.0/cells/cap_vpp_08p6x07p8_l1m1m2_noshield/sky130_fd_pr__cap_vpp_08p6x07p8_l1m1m2_noshield.model.spice
Reading file: 
        /home/eda/edk_cadence/sky130_release_0.1.0/cells/cap_vpp_04p4x04p6_l1m1m2_noshield/sky130_fd_pr__cap_vpp_04p4x04p6_l1m1m2_noshield.model.spice
Reading file: 
        /home/eda/edk_cadence/sky130_release_0.1.0/cells/cap_vpp_11p5x11p7_l1m1m2_noshield/sky130_fd_pr__cap_vpp_11p5x11p7_l1m1m2_noshield.model.spice
Reading file: 
        /home/eda/edk_cadence/sky130_release_0.1.0/cells/cap_vpp_01p8x01p8_m1m2_noshield/sky130_fd_pr__cap_vpp_01p8x01p8_m1m2_noshield.model.spice
Reading file: 
        /home/eda/edk_cadence/sky130_release_0.1.0/cells/cap_vpp_08p6x07p8_m1m2_shieldl1/sky130_fd_pr__cap_vpp_08p6x07p8_m1m2_shieldl1.model.spice
Reading file: 
        /home/eda/edk_cadence/sky130_release_0.1.0/cells/cap_vpp_04p4x04p6_m1m2_shieldl1/sky130_fd_pr__cap_vpp_04p4x04p6_m1m2_shieldl1.model.spice
Reading file: 
        /home/eda/edk_cadence/sky130_release_0.1.0/cells/cap_vpp_11p5x11p7_m1m2_shieldl1/sky130_fd_pr__cap_vpp_11p5x11p7_m1m2_shieldl1.model.spice
Reading file: 
        /home/eda/edk_cadence/sky130_release_0.1.0/cells/cap_vpp_08p6x07p8_l1m1m2_shieldpo_floatm3/sky130_fd_pr__cap_vpp_08p6x07p8_l1m1m2_shieldpo_floatm3.model.spice
Reading file: 
        /home/eda/edk_cadence/sky130_release_0.1.0/cells/cap_vpp_04p4x04p6_l1m1m2_shieldpo_floatm3/sky130_fd_pr__cap_vpp_04p4x04p6_l1m1m2_shieldpo_floatm3.model.spice
Reading file: 
        /home/eda/edk_cadence/sky130_release_0.1.0/cells/cap_vpp_11p5x11p7_l1m1m2_shieldpom3/sky130_fd_pr__cap_vpp_11p5x11p7_l1m1m2_shieldpom3.model.spice
Reading file: 
        /home/eda/edk_cadence/sky130_release_0.1.0/cells/cap_vpp_03p9x03p9_m1m2_shieldl1_floatm3/sky130_fd_pr__cap_vpp_03p9x03p9_m1m2_shieldl1_floatm3.model.spice
Reading file: 
        /home/eda/edk_cadence/sky130_release_0.1.0/cells/cap_vpp_04p4x04p6_l1m1m2_noshield/sky130_fd_pr__cap_vpp_04p4x04p6_l1m1m2_noshield_o1.model.spice
Reading file: 
        /home/eda/edk_cadence/sky130_release_0.1.0/cells/cap_vpp_08p6x07p8_m1m2_noshield/sky130_fd_pr__cap_vpp_08p6x07p8_m1m2_noshield.model.spice
Reading file: 
        /home/eda/edk_cadence/sky130_release_0.1.0/cells/cap_vpp_04p4x04p6_m1m2_noshield/sky130_fd_pr__cap_vpp_04p4x04p6_m1m2_noshield_o2.model.spice
Reading file: 
        /home/eda/edk_cadence/sky130_release_0.1.0/cells/cap_vpp_02p4x04p6_m1m2_noshield/sky130_fd_pr__cap_vpp_02p4x04p6_m1m2_noshield.model.spice
Reading file: 
        /home/eda/edk_cadence/sky130_release_0.1.0/cells/cap_vpp_04p4x04p6_m1m2_noshield/sky130_fd_pr__cap_vpp_04p4x04p6_m1m2_noshield.model.spice
Reading file: 
        /home/eda/edk_cadence/sky130_release_0.1.0/cells/cap_vpp_11p5x11p7_m1m2_noshield/sky130_fd_pr__cap_vpp_11p5x11p7_m1m2_noshield.model.spice
Reading file: 
        /home/eda/edk_cadence/sky130_release_0.1.0/cells/npn_05v5/sky130_fd_pr__npn_05v5__t.corner.spice
Reading file: 
        /home/eda/edk_cadence/sky130_release_0.1.0/cells/npn_05v5/sky130_fd_pr__npn_05v5_W1p00L1p00.model.spice
Reading file: 
        /home/eda/edk_cadence/sky130_release_0.1.0/cells/npn_05v5/sky130_fd_pr__npn_05v5_W1p00L2p00.model.spice
Reading file: 
        /home/eda/edk_cadence/sky130_release_0.1.0/cells/npn_11v0/sky130_fd_pr__npn_11v0_W1p00L1p00.model.spice
Reading file: 
        /home/eda/edk_cadence/sky130_release_0.1.0/cells/pnp_05v5/sky130_fd_pr__pnp_05v5_W3p40L3p40.model.spice
Reading file: 
        /home/eda/edk_cadence/sky130_release_0.1.0/models/corners/tt/specialized_cells.spice
Reading file: 
        /home/eda/edk_cadence/sky130_release_0.1.0/cells/special_nfet_latch/sky130_fd_pr__special_nfet_latch__mismatch.corner.spice
Reading file: 
        /home/eda/edk_cadence/sky130_release_0.1.0/cells/special_nfet_pass/sky130_fd_pr__special_nfet_pass__mismatch.corner.spice
Reading file: 
        /home/eda/edk_cadence/sky130_release_0.1.0/cells/special_nfet_pass_flash/sky130_fd_pr__special_nfet_pass_flash__mismatch.corner.spice
Reading file: 
        /home/eda/edk_cadence/sky130_release_0.1.0/cells/special_pfet_pass/sky130_fd_pr__special_pfet_pass__mismatch.corner.spice
Reading file: 
        /home/eda/edk_cadence/sky130_release_0.1.0/cells/special_nfet_pass_lvt/sky130_fd_pr__special_nfet_pass_lvt__tt.corner.spice
Reading file: 
        /home/eda/edk_cadence/sky130_release_0.1.0/cells/special_nfet_pass_lvt/sky130_fd_pr__special_nfet_pass_lvt.pm3.spice
Reading file:  /home/eda/edk_cadence/sky130_release_0.1.0/models/all.spice
Reading file: 
        /home/eda/edk_cadence/sky130_release_0.1.0/models/parameters/lod.spice
Reading file: 
        /home/eda/edk_cadence/sky130_release_0.1.0/models/parasitics/sky130_fd_pr__model__parasitic__diode_ps2nw.model.spice
Reading file: 
        /home/eda/edk_cadence/sky130_release_0.1.0/cells/diode_pw2nd_05v5/sky130_fd_pr__diode_pw2nd_05v5.model.spice
Reading file: 
        /home/eda/edk_cadence/sky130_release_0.1.0/cells/diode_pd2nw_05v5/sky130_fd_pr__diode_pd2nw_05v5.model.spice
Reading file: 
        /home/eda/edk_cadence/sky130_release_0.1.0/cells/diode_pd2nw_05v5_hvt/sky130_fd_pr__diode_pd2nw_05v5_hvt.model.spice
Reading file: 
        /home/eda/edk_cadence/sky130_release_0.1.0/cells/diode_pw2nd_11v0/sky130_fd_pr__diode_pw2nd_11v0.model.spice
Reading file: 
        /home/eda/edk_cadence/sky130_release_0.1.0/cells/diode_pd2nw_11v0/sky130_fd_pr__diode_pd2nw_11v0.model.spice
Reading file: 
        /home/eda/edk_cadence/sky130_release_0.1.0/cells/diode_pw2nd_05v5_nvt/sky130_fd_pr__diode_pw2nd_05v5_nvt.model.spice
Reading file: 
        /home/eda/edk_cadence/sky130_release_0.1.0/cells/diode_pw2nd_05v5_lvt/sky130_fd_pr__diode_pw2nd_05v5_lvt.model.spice
Reading file: 
        /home/eda/edk_cadence/sky130_release_0.1.0/cells/diode_pd2nw_05v5_lvt/sky130_fd_pr__diode_pd2nw_05v5_lvt.model.spice
Reading file: 
        /home/eda/edk_cadence/sky130_release_0.1.0/models/parasitics/sky130_fd_pr__model__parasitic__diode_pw2dn.model.spice
Reading file: 
        /home/eda/edk_cadence/sky130_release_0.1.0/models/parasitics/sky130_fd_pr__model__parasitic__diode_ps2dn.model.spice
Reading file: 
        /home/eda/edk_cadence/sky130_release_0.1.0/cells/pfet_g5v0d16v0/sky130_fd_pr__pfet_g5v0d16v0__parasitic__diode_pw2dn.model.spice
Reading file: 
        /home/eda/edk_cadence/sky130_release_0.1.0/cells/pnp_05v5/sky130_fd_pr__pnp_05v5_W0p68L0p68.model.spice
Reading file: 
        /home/eda/edk_cadence/sky130_release_0.1.0/cells/pfet_g5v0d16v0/sky130_fd_pr__pfet_g5v0d16v0.pm3.spice
Reading file: 
        /home/eda/edk_cadence/sky130_release_0.1.0/cells/pfet_g5v0d16v0/sky130_fd_pr__pfet_g5v0d16v0__subcircuit.pm3.spice
Reading file: 
        /home/eda/edk_cadence/sky130_release_0.1.0/cells/cap_var_lvt/sky130_fd_pr__cap_var_lvt.model.spice
Reading file: 
        /home/eda/edk_cadence/sky130_release_0.1.0/cells/cap_vpp_08p6x07p8_l1m1m2_noshield/sky130_fd_pr__cap_vpp_08p6x07p8_l1m1m2_noshield_o1.model.spice
Reading file: 
        /home/eda/edk_cadence/sky130_release_0.1.0/models/capacitors/sky130_fd_pr__model__cap_mim.model.spice
Reading file: 
        /home/eda/edk_cadence/sky130_release_0.1.0/cells/cap_mim_m3/sky130_fd_pr__cap_mim_m3_1.model.spice
Reading file: 
        /home/eda/edk_cadence/sky130_release_0.1.0/cells/cap_mim_m3/sky130_fd_pr__cap_mim_m3_2.model.spice
Reading file: 
        /home/eda/edk_cadence/sky130_release_0.1.0/models/capacitors/sky130_fd_pr__model__cap_vpp_only_mos.model.spice
Reading file: 
        /home/eda/edk_cadence/sky130_release_0.1.0/cells/cap_vpp_04p4x04p6_m1m2_noshield/sky130_fd_pr__cap_vpp_04p4x04p6_m1m2_noshield_o1nhv.model.spice
Reading file: 
        /home/eda/edk_cadence/sky130_release_0.1.0/cells/cap_vpp_04p4x04p6_m1m2_noshield/sky130_fd_pr__cap_vpp_04p4x04p6_m1m2_noshield_o1phv.model.spice
Reading file: 
        /home/eda/edk_cadence/sky130_release_0.1.0/models/sonos_p/begin_of_life/mm.spice
Reading file: 
        /home/eda/edk_cadence/sky130_release_0.1.0/models/sonos_e/begin_of_life/mm.spice
Reading file:  /home/eda/edk_cadence/sky130_release_0.1.0/models/head.spice
Reading file: 
        /home/eda/edk_cadence/sky130_release_0.1.0/cells/special_nfet_pass/sky130_fd_pr__special_nfet_pass.pm3.spice
Reading file: 
        /home/eda/edk_cadence/sky130_release_0.1.0/cells/special_nfet_latch/sky130_fd_pr__special_nfet_latch.pm3.spice
Reading file: 
        /home/eda/edk_cadence/sky130_release_0.1.0/cells/special_pfet_pass/sky130_fd_pr__special_pfet_pass.pm3.spice
Reading file: 
        /home/eda/edk_cadence/sky130_release_0.1.0/cells/special_nfet_pass_flash/sky130_fd_pr__special_nfet_pass_flash.pm3.spice
Reading file: 
        /home/eda/edk_cadence/sky130_release_0.1.0/models/capacitors/sky130_fd_pr__model__cap_vpp_only_pq.model.spice
Reading file: 
        /home/eda/edk_cadence/sky130_release_0.1.0/cells/cap_vpp_08p6x07p8_m1m2m3_shieldl1/sky130_fd_pr__cap_vpp_08p6x07p8_m1m2m3_shieldl1.model.spice
Reading file: 
        /home/eda/edk_cadence/sky130_release_0.1.0/cells/cap_vpp_04p4x04p6_m1m2m3_shieldl1/sky130_fd_pr__cap_vpp_04p4x04p6_m1m2m3_shieldl1.model.spice
Reading file: 
        /home/eda/edk_cadence/sky130_release_0.1.0/cells/cap_vpp_11p5x11p7_m1m2m3_shieldl1/sky130_fd_pr__cap_vpp_11p5x11p7_m1m2m3_shieldl1.model.spice
Reading file: 
        /home/eda/edk_cadence/sky130_release_0.1.0/cells/cap_vpp_11p5x11p7_l1m1m2m3_shieldm4/sky130_fd_pr__cap_vpp_11p5x11p7_l1m1m2m3_shieldm4.model.spice
Reading file: 
        /home/eda/edk_cadence/sky130_release_0.1.0/cells/cap_vpp_11p5x11p7_l1m1m2m3_shieldpom4/sky130_fd_pr__cap_vpp_11p5x11p7_l1m1m2m3_shieldpom4.model.spice
Reading file: 
        /home/eda/edk_cadence/sky130_release_0.1.0/cells/cap_vpp_06p8x06p1_l1m1m2m3_shieldpom4/sky130_fd_pr__cap_vpp_06p8x06p1_l1m1m2m3_shieldpom4.model.spice
Reading file: 
        /home/eda/edk_cadence/sky130_release_0.1.0/cells/cap_vpp_06p8x06p1_m1m2m3_shieldl1m4/sky130_fd_pr__cap_vpp_06p8x06p1_m1m2m3_shieldl1m4.model.spice
Reading file: 
        /home/eda/edk_cadence/sky130_release_0.1.0/models/capacitors/sky130_fd_pr__model__cap_vpp_only_p.model.spice
Reading file: 
        /home/eda/edk_cadence/sky130_release_0.1.0/cells/cap_vpp_11p5x11p7_l1m1m2m3m4_shieldm5/sky130_fd_pr__cap_vpp_11p5x11p7_l1m1m2m3m4_shieldm5.model.spice
Reading file: 
        /home/eda/edk_cadence/sky130_release_0.1.0/cells/cap_vpp_11p5x11p7_l1m1m2m3m4_shieldpom5/sky130_fd_pr__cap_vpp_11p5x11p7_l1m1m2m3m4_shieldpom5.model.spice
Reading file: 
        /home/eda/edk_cadence/sky130_release_0.1.0/cells/cap_vpp_11p5x11p7_m1m2m3m4_shieldl1m5/sky130_fd_pr__cap_vpp_11p5x11p7_m1m2m3m4_shieldl1m5.model.spice
Reading file: 
        /home/eda/edk_cadence/sky130_release_0.1.0/cells/cap_vpp_11p5x11p7_m1m4_noshield/sky130_fd_pr__cap_vpp_11p5x11p7_m1m4_noshield.model.spice
Reading file: 
        /home/eda/edk_cadence/sky130_release_0.1.0/cells/cap_vpp_11p5x11p7_m1m2m3m4_shieldm5/sky130_fd_pr__cap_vpp_11p5x11p7_m1m2m3m4_shieldm5.model.spice
Reading file: 
        /home/eda/edk_cadence/sky130_release_0.1.0/cells/cap_vpp_08p6x07p8_m1m2m3_shieldl1m5_floatm4/sky130_fd_pr__cap_vpp_08p6x07p8_m1m2m3_shieldl1m5_floatm4.model.spice
Reading file: 
        /home/eda/edk_cadence/sky130_release_0.1.0/cells/cap_vpp_04p4x04p6_m1m2m3_shieldl1m5_floatm4/sky130_fd_pr__cap_vpp_04p4x04p6_m1m2m3_shieldl1m5_floatm4.model.spice
Reading file: 
        /home/eda/edk_cadence/sky130_release_0.1.0/cells/cap_vpp_11p5x11p7_m1m2m3_shieldl1m5_floatm4/sky130_fd_pr__cap_vpp_11p5x11p7_m1m2m3_shieldl1m5_floatm4.model.spice
Reading file: 
        /home/eda/edk_cadence/sky130_release_0.1.0/cells/cap_vpp_11p3x11p8_l1m1m2m3m4_shieldm5/sky130_fd_pr__cap_vpp_11p3x11p8_l1m1m2m3m4_shieldm5_nhv.model.spice
Reading file: 
        /home/eda/edk_cadence/sky130_release_0.1.0/cells/cap_vpp_11p3x11p8_l1m1m2m3m4_shieldm5/sky130_fd_pr__cap_vpp_11p3x11p8_l1m1m2m3m4_shieldm5_nhv__base.model.spice
Reading file: 
        /home/eda/edk_cadence/sky130_release_0.1.0/cells/cap_vpp_11p5x11p7_l1m1m2m3m4_shieldpom5/sky130_fd_pr__cap_vpp_11p5x11p7_l1m1m2m3m4_shieldpom5_x.model.spice
Reading file: 
        /home/eda/edk_cadence/sky130_release_0.1.0/cells/cap_vpp_02p9x06p1_m1m2m3m4_shieldl1/sky130_fd_pr__cap_vpp_02p9x06p1_m1m2m3m4_shieldl1_fingercap2.model.spice
Reading file: 
        /home/eda/edk_cadence/sky130_release_0.1.0/cells/cap_vpp_02p7x11p1_m1m2m3m4_shieldl1/sky130_fd_pr__cap_vpp_02p7x11p1_m1m2m3m4_shieldl1_fingercap.model.spice
Reading file: 
        /home/eda/edk_cadence/sky130_release_0.1.0/cells/cap_vpp_02p7x21p1_m1m2m3m4_shieldl1/sky130_fd_pr__cap_vpp_02p7x21p1_m1m2m3m4_shieldl1_fingercap.model.spice
Reading file: 
        /home/eda/edk_cadence/sky130_release_0.1.0/cells/cap_vpp_02p7x41p1_m1m2m3m4_shieldl1/sky130_fd_pr__cap_vpp_02p7x41p1_m1m2m3m4_shieldl1_fingercap.model.spice
Reading file: 
        /home/eda/edk_cadence/sky130_release_0.1.0/cells/cap_vpp_02p7x06p1_m1m2m3m4_shieldl1/sky130_fd_pr__cap_vpp_02p7x06p1_m1m2m3m4_shieldl1_fingercap.model.spice
Reading file: 
        /home/eda/edk_cadence/sky130_release_0.1.0/cells/cap_vpp_11p3x11p3_m1m2m3m4_shieldl1/sky130_fd_pr__cap_vpp_11p3x11p3_m1m2m3m4_shieldl1_wafflecap.model.spice
Reading file: 
        /home/eda/edk_cadence/sky130_release_0.1.0/cells/cap_vpp_05p9x05p9_m1m2m3m4_shieldl1/sky130_fd_pr__cap_vpp_05p9x05p9_m1m2m3m4_shieldl1_wafflecap.model.spice
Reading file: 
        /home/eda/edk_cadence/sky130_release_0.1.0/cells/cap_vpp_44p7x23p1_pol1m1m2m3m4m5_noshield/sky130_fd_pr__cap_vpp_44p7x23p1_pol1m1m2m3m4m5_noshield.model.spice
Reading file: 
        /home/eda/edk_cadence/sky130_release_0.1.0/models/sky130_fd_pr__model__linear.model.spice
Reading file: 
        /home/eda/edk_cadence/sky130_release_0.1.0/models/parasitics/sky130_fd_pr__model__parasitic__res_po.model.spice
Reading file: 
        /home/eda/edk_cadence/sky130_release_0.1.0/cells/res_xhigh_po/sky130_fd_pr__res_xhigh_po.model.spice
Reading file: 
        /home/eda/edk_cadence/sky130_release_0.1.0/cells/res_high_po/sky130_fd_pr__res_high_po.model.spice
Reading file: 
        /home/eda/edk_cadence/sky130_release_0.1.0/cells/res_xhigh_po/sky130_fd_pr__res_xhigh_po_0p35.model.spice
Reading file: 
        /home/eda/edk_cadence/sky130_release_0.1.0/cells/res_xhigh_po/sky130_fd_pr__res_xhigh_po_0p69.model.spice
Reading file: 
        /home/eda/edk_cadence/sky130_release_0.1.0/cells/res_xhigh_po/sky130_fd_pr__res_xhigh_po_1p41.model.spice
Reading file: 
        /home/eda/edk_cadence/sky130_release_0.1.0/cells/res_xhigh_po/sky130_fd_pr__res_xhigh_po_2p85.model.spice
Reading file: 
        /home/eda/edk_cadence/sky130_release_0.1.0/cells/res_xhigh_po/sky130_fd_pr__res_xhigh_po_5p73.model.spice
Reading file: 
        /home/eda/edk_cadence/sky130_release_0.1.0/cells/res_xhigh_po/sky130_fd_pr__res_xhigh_po__base.model.spice
Reading file: 
        /home/eda/edk_cadence/sky130_release_0.1.0/cells/res_high_po/sky130_fd_pr__res_high_po_0p35.model.spice
Reading file: 
        /home/eda/edk_cadence/sky130_release_0.1.0/cells/res_high_po/sky130_fd_pr__res_high_po_0p69.model.spice
Reading file: 
        /home/eda/edk_cadence/sky130_release_0.1.0/cells/res_high_po/sky130_fd_pr__res_high_po_1p41.model.spice
Reading file: 
        /home/eda/edk_cadence/sky130_release_0.1.0/cells/res_high_po/sky130_fd_pr__res_high_po_2p85.model.spice
Reading file: 
        /home/eda/edk_cadence/sky130_release_0.1.0/cells/res_high_po/sky130_fd_pr__res_high_po_5p73.model.spice
Reading file: 
        /home/eda/edk_cadence/sky130_release_0.1.0/cells/rf_nfet_g5v0d10v5/sky130_fd_pr__rf_nfet_g5v0d10v5.pm3.spice
Reading file: 
        /home/eda/edk_cadence/sky130_release_0.1.0/cells/rf_nfet_01v8_lvt/sky130_fd_pr__rf_nfet_01v8_lvt.pm3.spice
Reading file: 
        /home/eda/edk_cadence/sky130_release_0.1.0/cells/rf_nfet_01v8/sky130_fd_pr__rf_nfet_01v8.pm3.spice
Reading file: 
        /home/eda/edk_cadence/sky130_release_0.1.0/cells/rf_pfet_01v8/sky130_fd_pr__rf_pfet_01v8.pm3.spice
Reading file: 
        /home/eda/edk_cadence/sky130_release_0.1.0/cells/rf_pfet_01v8_mvt/sky130_fd_pr__rf_pfet_01v8_mvt.pm3.spice
Reading file: 
        /home/eda/edk_cadence/sky130_release_0.1.0/models/corners/tt/rf.spice
Reading file: 
        /home/eda/edk_cadence/sky130_release_0.1.0/cells/rf_nfet_01v8/sky130_fd_pr__rf_nfet_01v8_b__tt.corner.spice
Reading file: 
        /home/eda/edk_cadence/sky130_release_0.1.0/cells/rf_nfet_01v8/sky130_fd_pr__rf_nfet_01v8_b.pm3.spice
Reading file: 
        /home/eda/edk_cadence/sky130_release_0.1.0/cells/rf_nfet_01v8_lvt/sky130_fd_pr__rf_nfet_01v8_lvt_b__tt.corner.spice
Reading file: 
        /home/eda/edk_cadence/sky130_release_0.1.0/cells/rf_nfet_01v8_lvt/sky130_fd_pr__rf_nfet_01v8_lvt_b.pm3.spice
Reading file: 
        /home/eda/edk_cadence/sky130_release_0.1.0/cells/rf_nfet_g5v0d10v5/sky130_fd_pr__rf_nfet_g5v0d10v5_b__tt.corner.spice
Reading file: 
        /home/eda/edk_cadence/sky130_release_0.1.0/cells/rf_nfet_g5v0d10v5/sky130_fd_pr__rf_nfet_g5v0d10v5_b.pm3.spice
Reading file: 
        /home/eda/edk_cadence/sky130_release_0.1.0/cells/rf_pfet_01v8/sky130_fd_pr__rf_pfet_01v8_b__tt.corner.spice
Reading file: 
        /home/eda/edk_cadence/sky130_release_0.1.0/cells/rf_pfet_01v8/sky130_fd_pr__rf_pfet_01v8_b.pm3.spice
Reading file: 
        /home/eda/edk_cadence/sky130_release_0.1.0/cells/rf_nfet_01v8/sky130_fd_pr__rf_nfet_01v8__mismatch.corner.spice
Reading file: 
        /home/eda/edk_cadence/sky130_release_0.1.0/cells/rf_nfet_01v8_lvt/sky130_fd_pr__rf_nfet_01v8_lvt__mismatch.corner.spice
Reading file: 
        /home/eda/edk_cadence/sky130_release_0.1.0/cells/rf_nfet_g5v0d10v5/sky130_fd_pr__rf_nfet_g5v0d10v5__mismatch.corner.spice
Reading file: 
        /home/eda/edk_cadence/sky130_release_0.1.0/cells/rf_pfet_01v8/sky130_fd_pr__rf_pfet_01v8__mismatch.corner.spice
Reading file: 
        /home/eda/edk_cadence/sky130_release_0.1.0/cells/rf_pfet_01v8_mvt/sky130_fd_pr__rf_pfet_01v8_mvt__tt_discrete.corner.spice
Reading file: 
        /home/eda/edk_cadence/sky130_release_0.1.0/cells/pfet_01v8_mvt/sky130_fd_pr__pfet_01v8_mvt.pm3.spice
Reading file: 
        /home/eda/edk_cadence/sky130_release_0.1.0/cells/rf_pfet_01v8_mvt/sky130_fd_pr__rf_pfet_01v8_mvt__mismatch.corner.spice
Reading file: 
        /home/eda/edk_cadence/sky130_release_0.1.0/cells/pfet_20v0/sky130_fd_pr__pfet_20v0__tt_discrete.corner.spice
Reading file: 
        /home/eda/edk_cadence/sky130_release_0.1.0/cells/pfet_20v0/sky130_fd_pr__pfet_20v0__subcircuit.pm3.spice
Reading file: 
        /home/eda/edk_cadence/sky130_release_0.1.0/cells/pfet_20v0/sky130_fd_pr__pfet_20v0__parasitic__diode_pw2dn.model.spice
Reading file: 
        /home/eda/edk_cadence/sky130_release_0.1.0/cells/nfet_20v0/sky130_fd_pr__nfet_20v0__tt_discrete.corner.spice
Reading file: 
        /home/eda/edk_cadence/sky130_release_0.1.0/cells/nfet_20v0/sky130_fd_pr__nfet_20v0__subcircuit.pm3.spice
Reading file: 
        /home/eda/edk_cadence/sky130_release_0.1.0/models/parasitics/sky130_fd_pr__model__parasitic__diode_pw2dn__extended_drain.model.spice
Reading file: 
        /home/eda/edk_cadence/sky130_release_0.1.0/cells/diode_pw2nd_05v5/sky130_fd_pr__diode_pw2nd_05v5__extended_drain.model.spice
Reading file: 
        /home/eda/edk_cadence/sky130_release_0.1.0/cells/nfet_20v0_iso/sky130_fd_pr__nfet_20v0_iso__subcircuit.pm3.spice
Reading file: 
        /home/eda/edk_cadence/sky130_release_0.1.0/models/parasitics/sky130_fd_pr__model__parasitic__diode_ps2dn__extended_drain.model.spice
Reading file: 
        /home/eda/edk_cadence/sky130_release_0.1.0/cells/nfet_20v0_reverse_iso/sky130_fd_pr__nfet_20v0_reverse_iso__subcircuit.pm3.spice
Reading file: 
        /home/eda/edk_cadence/sky130_release_0.1.0/cells/nfet_20v0_zvt/sky130_fd_pr__nfet_20v0_zvt__tt_discrete.corner.spice
Reading file: 
        /home/eda/edk_cadence/sky130_release_0.1.0/cells/nfet_20v0_zvt/sky130_fd_pr__nfet_20v0_zvt__subcircuit.pm3.spice
Reading file: 
        /home/eda/edk_cadence/sky130_release_0.1.0/cells/nfet_20v0_zvt/sky130_fd_pr__nfet_20v0_zvt__parasitic__diode_ps2dn__extended_drain.model.spice
Reading file: 
        /home/eda/edk_cadence/sky130_release_0.1.0/cells/nfet_20v0_nvt/sky130_fd_pr__nfet_20v0_nvt__tt_discrete.corner.spice
Reading file: 
        /home/eda/edk_cadence/sky130_release_0.1.0/cells/nfet_20v0_nvt/sky130_fd_pr__nfet_20v0_nvt__subcircuit.pm3.spice
Reading file: 
        /home/eda/edk_cadence/sky130_release_0.1.0/cells/nfet_20v0_nvt/sky130_fd_pr__nfet_20v0_nvt__parasitic__diode_ps2dn.model.spice
Reading file: 
        /home/me59/amplifier_runner/q5-bp-dual-input-hp-output-sink-trial-0146/dummy_neural_amp.scs
Time for NDB Parsing: CPU = 695.029 ms, elapsed = 926.491 ms.
Time accumulated: CPU = 752.513 ms, elapsed = 926.498 ms.
Peak resident memory used = 87.3 Mbytes.

Reading link: 
        /home/eda/cadence/spectre191/tools.lnx86/spectre/etc/ahdl/discipline.h
Reading file: 
        /home/eda/cadence/spectre191/tools.lnx86/spectre/etc/ahdl/disciplines.vams
Reading link: 
        /home/eda/cadence/spectre191/tools.lnx86/spectre/etc/ahdl/constants.h
Reading file: 
        /home/eda/cadence/spectre191/tools.lnx86/spectre/etc/ahdl/constants.vams
Compiling ahdlcmi module library for bsource_ceb90a.
Finished compilation in 1.18 s (elapsed) for bsource_ceb90a.
Installed compiled interface for bsource_ceb90a.
Compiling ahdlcmi module library for bsource_d18ca2.
Finished compilation in 1.27 s (elapsed) for bsource_d18ca2.
Installed compiled interface for bsource_d18ca2.
Time for Elaboration: CPU = 137.01 ms, elapsed = 2.59193 s.
Time accumulated: CPU = 889.647 ms, elapsed = 3.51855 s.
Peak resident memory used = 109 Mbytes.


Notice from spectre in `res_high_po_5p73':`XDUT.RE1B', in
        `dummy_neural_amp':`XDUT', during hierarchy flattening.
    XDUT.RE1B.c2: Terminals are connected together (to node `0').
Notice from spectre in `res_high_po_5p73':`XDUT.RE2B', in
        `dummy_neural_amp':`XDUT', during hierarchy flattening.
    XDUT.RE2B.c2: Terminals are connected together (to node `0').
Notice from spectre in `res_high_po_5p73':`XDUT.RBUF', in
        `dummy_neural_amp':`XDUT', during hierarchy flattening.
    XDUT.RBUF.c2: Terminals are connected together (to node `0').
Notice from spectre in `res_high_po_5p73':`XDUT.RQ5B', in
        `dummy_neural_amp':`XDUT', during hierarchy flattening.
    XDUT.RQ5B.c2: Terminals are connected together (to node `0').
Notice from spectre in `res_high_po_5p73':`XDUT.REQ5', in
        `dummy_neural_amp':`XDUT', during hierarchy flattening.
    XDUT.REQ5.c2: Terminals are connected together (to node `0').
        Further occurrences of this notice will be suppressed (except in log
        file).


Time for EDB Visiting: CPU = 5.788 ms, elapsed = 5.79 ms.
Time accumulated: CPU = 895.642 ms, elapsed = 3.52455 s.
Peak resident memory used = 109 Mbytes.


Warning from spectre during initial setup.
    WARNING (CMI-2275): XDUT.Q3.sky130_fd_pr__npn_05v5_W1p00L1p00__model:
        Temperature effects have made `rbm' less than `minr'.
Notice from spectre during initial setup.
    XDUT.Q3.sky130_fd_pr__npn_05v5_W1p00L1p00__model: `rbm' is less than
        `minr'.  `minr' is used.

Global user options:
             rawfmt = psfxl

Scoped user options:

Circuit inventory:
              nodes 103
                bjt 5     
     bsource_ceb90a 17    
     bsource_d18ca2 17    
          capacitor 77    
           resistor 70    
            vsource 3     

Analysis and control statement inventory:
               tran 1     

Output statements:
             .probe 0     
           .measure 0     
               save 1     


Notice from spectre during initial setup.
    70 resistors are changed to resistance form because their value are less
        than 'rthresh'.

Time for parsing: CPU = 6.5 ms, elapsed = 22.14 ms.
Time accumulated: CPU = 902.304 ms, elapsed = 3.54685 s.
Peak resident memory used = 111 Mbytes.

~~~~~~~~~~~~~~~~~~~~~~
Pre-Simulation Summary
~~~~~~~~~~~~~~~~~~~~~~
~~~~~~~~~~~~~~~~~~~~~~

************************************************
Transient Analysis `tran': time = (0 s -> 20 ms)
************************************************
DC simulation time: CPU = 3.021 ms, elapsed = 2.94304 ms.

Opening the PSFXL file
        /home/me59/amplifier_runner/q5-bp-dual-input-hp-output-sink-trial-0146/run/tran_psf/tran.tran.tran
        ...
Important parameter values:
    start = 0 s
    outputstart = 0 s
    stop = 20 ms
    step = 20 us
    maxstep = 1 us
    ic = all
    useprevic = no
    skipdc = no
    reltol = 1e-03
    abstol(V) = 1 uV
    abstol(I) = 1 pA
    temp = 27 C
    tnom = 27 C
    tempeffects = all
    errpreset = moderate
    method = traponly
    lteratio = 3.5
    relref = sigglobal
    cmin = 0 F
    gmin = 1 pS


Output and IC/nodeset summary:
                 save   1       (current)
                 save   2       (voltage)

......9......8......7......6......5......4......3......2......1......0
Number of accepted tran steps =             20000

Maximum value achieved for any signal of each quantity: 
V: V(VDD) = 5 V
I: I(VDD:p) = 142.6 uA
If your circuit contains signals of the same quantity that are vastly different
        in size (such as high voltage circuitry combined with low voltage
        control circuitry), you should consider specifying global option
        `bin_relref=yes'.

~~~~~~~~~~~~~~~~~~~~~~~~~~~~~~~~~
Post-Transient Simulation Summary
~~~~~~~~~~~~~~~~~~~~~~~~~~~~~~~~~
   -   To further speed up simulation, consider
          add ++aps on command line
   -   Non-default settings that could significantly slow down simulation
          maxstep = 1 us, default 400 us
~~~~~~~~~~~~~~~~~~~~~~~~~~~~~~~~~


During simulation, the CPU load for active processors is :
        Spectre  0 (4.2 %)       1 (1.8 %)       2 (9.9 %)       3 (4.0 %)
                 4 (2.2 %)       5 (2.6 %)       6 (2.4 %)       7 (3.8 %)
                 8 (4.8 %)       9 (4.6 %)      10 (2.0 %)      11 (2.4 %)
                12 (4.6 %)      13 (5.3 %)      14 (5.7 %)      15 (2.0 %)
                16 (2.2 %)      17 (1.3 %)      18 (1.3 %)      19 (18.1 %)
                20 (2.9 %)      21 (1.1 %)      22 (2.0 %)      23 (3.7 %)
                24 (2.4 %)      25 (1.5 %)      26 (25.2 %)     29 (1.1 %)
                37 (100.0 %)    39 (2.0 %)      40 (4.0 %)      41 (12.6 %)
                42 (9.9 %)      43 (5.9 %)      44 (5.1 %)      45 (7.7 %)
                46 (8.6 %)      47 (6.2 %)      48 (6.6 %)      49 (5.5 %)
                50 (4.0 %)      51 (4.2 %)      52 (5.7 %)      53 (5.1 %)
                54 (3.3 %)      55 (5.3 %)      56 (3.5 %)      57 (2.0 %)
                58 (14.3 %)     59 (1.3 %)      60 (2.0 %)      61 (12.6 %)
                62 (22.2 %)     63 (11.2 %)     64 (8.8 %)      65 (10.1 %)
                66 (6.8 %)      67 (6.4 %)      68 (5.7 %)      69 (5.3 %)
                70 (5.9 %)      71 (4.2 %)      72 (3.7 %)      73 (4.2 %)
                74 (4.6 %)      75 (4.2 %)      76 (2.2 %)      78 (2.9 %)
                79 (2.0 %)      
        Other   
Initial condition solution time: CPU = 3.155 ms, elapsed = 3.07703 ms.
Intrinsic tran analysis time:    CPU = 1.11957 s, elapsed = 1.12108 s.
Total time required for tran analysis `tran': CPU = 1.12609 s, elapsed = 1.1275
        s.
Time accumulated: CPU = 2.03623 s, elapsed = 4.68219 s.
Peak resident memory used = 114 Mbytes.


Aggregate audit (10:10:31 AM, Mon Jun 8, 2026):
Time used: CPU = 2.1 s, elapsed = 4.76 s, util. = 44.2%.
Time spent in licensing: elapsed = 140 ms.
Peak memory used = 114 Mbytes.
Simulation started at: 10:10:27 AM, Mon Jun 8, 2026, ended at: 10:10:31 AM, Mon
        Jun 8, 2026, with elapsed time (wall clock): 4.76 s.
spectre completes with 0 errors, 1 warning, and 8 notices.
COPYRIGHT (C) 1992-2024  CADENCE DESIGN SYSTEMS INC.  ALL RIGHTS RESERVED.
          (C) 1992-2024  UNIX SYSTEMS Laboratories INC.,
                         Reproduced with permission.

This Cadence Design Systems program and online documentation are
proprietary/confidential information and may be disclosed/used only
as authorized in a license agreement controlling such use and disclosure.

          RESTRICTED RIGHTS NOTICE (SHORT FORM)
Use/reproduction/disclosure is subject to restriction
set forth at FAR 1252.227-19 or its equivalent.
Loading geView.cxt 
Loading menuBuilder.cxt 
Loading schView.cxt 
Loading selectSv.cxt 
Loading wireEdit.cxt 
Loading pte2.cxt 
Loading xlUI.cxt 
Loading auCore.cxt 
Loading vhdl.cxt 
Loading seismic.cxt 
Loading ci.cxt 
Loading ams.cxt 
Loading adexlDM.cxt 
Loading cpf.cxt 
Loading cli.cxt 
Loading lp.cxt 
Virtuoso Framework License (111) was checked out successfully. Total checkout time was 0.07s.
Loading dal.cxt 
Loading awv.cxt 
Loading oasis.cxt 
Loading vdsil.cxt 
Loading analog.cxt 
Loading asimenv.cxt 
Loading spectrei.cxt 
Loading socket.cxt 
Loading par.cxt 
Loading alvs.cxt 
Loading caa.cxt 
Loading amps.cxt 
Loading adexlCore.cxt 
Loading adexl.cxt 
Loading lx.cxt 
Loading lce.cxt 
Loading le.cxt 
Loading drdEdit.cxt 
Loading rte.cxt 
Loading te.cxt 
Loading schHDL.cxt 
Loading devCheck.cxt 
Loading relXpert.cxt 
Loading simui.cxt 
Loading viva.cxt 
WARNING (PRINT-1048): Printing can become very slow because the data exceeds 10000 points. You can
             cancel this command and print the data to a file using the command v("VIN" ?resultsDir "/home/me59/amplifier_runner/q5-bp-dual-input-hp-output-sink-trial-0146/run/tran_psf" ?result "tran") v("VOUT" ?resultsDir "/home/me59/amplifier_runner/q5-bp-dual-input-hp-output-sink-trial-0146/run/tran_psf" ?result "tran") getData("VDD:p" ?resultsDir "/home/me59/amplifier_runner/q5-bp-dual-input-hp-output-sink-trial-0146/run/tran_psf" ?result "tran") ?output "./myOutFile" ?numberNotation 'none).

design: veriloga_dummy_neural_amp
area_total_p: 1.08715e+18
static_current_a: 0
power_dc_w: 0
power_dynamic_w: 0.0006941777122500002
power_score_basis_w: 0.000694178
ac_nrmse_db: 0.121113
midband_gain_db: 38.462
lower_3db_hz: 60.57955091556282
upper_3db_hz: 20129.617581110815
atten_low_rel_mid_db: -71.70697976901441
atten_high_rel_mid_db: -46.04070186773165
tran_nrmse: 0.00393685
vout_peak_to_peak_v: 0.200821
thd_db: -60.123
performance_nrmse_combined: 0.06252490847952057
